
---------- Begin Simulation Statistics ----------
final_tick                                58972479500                       # Number of ticks from beginning of simulation (restored from checkpoints and never reset)
host_inst_rate                                 371724                       # Simulator instruction rate (inst/s)
host_mem_usage                                 690156                       # Number of bytes of host memory used
host_op_rate                                   375823                       # Simulator op (including micro ops) rate (op/s)
host_seconds                                   269.02                       # Real time elapsed on the host
host_tick_rate                              219214630                       # Simulator tick rate (ticks/s)
sim_freq                                 1000000000000                       # Frequency of simulated ticks
sim_insts                                   100000000                       # Number of instructions simulated
sim_ops                                     101102729                       # Number of ops (including micro ops) simulated
sim_seconds                                  0.058972                       # Number of seconds simulated
sim_ticks                                 58972479500                       # Number of ticks simulated
system.cpu.branchPred.BTBCorrect                    0                       # Number of correct BTB predictions (this stat may not work properly.
system.cpu.branchPred.BTBHitPct             84.209741                       # BTB Hit Percentage
system.cpu.branchPred.BTBHits                 4085508                       # Number of BTB hits
system.cpu.branchPred.BTBLookups              4851586                       # Number of BTB lookups
system.cpu.branchPred.RASInCorrect                 19                       # Number of incorrect RAS predictions.
system.cpu.branchPred.condIncorrect            352096                       # Number of conditional branches incorrect
system.cpu.branchPred.condPredicted           5100937                       # Number of conditional branches predicted
system.cpu.branchPred.indirectHits             102865                       # Number of indirect target hits.
system.cpu.branchPred.indirectLookups          676238                       # Number of indirect predictor lookups.
system.cpu.branchPred.indirectMisses           573373                       # Number of indirect misses.
system.cpu.branchPred.lookups                 6508082                       # Number of BP lookups
system.cpu.branchPred.usedRAS                  312121                       # Number of times the RAS was used to get a target.
system.cpu.branchPredindirectMispredicted        37623                       # Number of mispredicted indirect branches.
system.cpu.committedInsts                   100000000                       # Number of instructions committed
system.cpu.committedOps                     101102729                       # Number of ops (including micro ops) committed
system.cpu.cpi                               1.179450                       # CPI: cycles per instruction
system.cpu.discardedOps                        975776                       # Number of ops (including micro ops) which were discarded before commit
system.cpu.dtb.accesses                             0                       # DTB accesses
system.cpu.dtb.align_faults                         0                       # Number of TLB faults due to alignment restrictions
system.cpu.dtb.domain_faults                        0                       # Number of TLB faults due to domain restrictions
system.cpu.dtb.flush_entries                        0                       # Number of entries that have been flushed from TLB
system.cpu.dtb.flush_tlb                            0                       # Number of times complete TLB was flushed
system.cpu.dtb.flush_tlb_asid                       0                       # Number of times TLB was flushed by ASID
system.cpu.dtb.flush_tlb_mva                        0                       # Number of times TLB was flushed by MVA
system.cpu.dtb.flush_tlb_mva_asid                   0                       # Number of times TLB was flushed by MVA & ASID
system.cpu.dtb.hits                                 0                       # DTB hits
system.cpu.dtb.inst_accesses                        0                       # ITB inst accesses
system.cpu.dtb.inst_hits                            0                       # ITB inst hits
system.cpu.dtb.inst_misses                          0                       # ITB inst misses
system.cpu.dtb.misses                               0                       # DTB misses
system.cpu.dtb.perms_faults                         0                       # Number of TLB faults due to permissions restrictions
system.cpu.dtb.prefetch_faults                      0                       # Number of TLB faults due to prefetch
system.cpu.dtb.read_accesses                        0                       # DTB read accesses
system.cpu.dtb.read_hits                            0                       # DTB read hits
system.cpu.dtb.read_misses                          0                       # DTB read misses
system.cpu.dtb.stage2_mmu.stage2_tlb.accesses            0                       # DTB accesses
system.cpu.dtb.stage2_mmu.stage2_tlb.align_faults            0                       # Number of TLB faults due to alignment restrictions
system.cpu.dtb.stage2_mmu.stage2_tlb.domain_faults            0                       # Number of TLB faults due to domain restrictions
system.cpu.dtb.stage2_mmu.stage2_tlb.flush_entries            0                       # Number of entries that have been flushed from TLB
system.cpu.dtb.stage2_mmu.stage2_tlb.flush_tlb            0                       # Number of times complete TLB was flushed
system.cpu.dtb.stage2_mmu.stage2_tlb.flush_tlb_asid            0                       # Number of times TLB was flushed by ASID
system.cpu.dtb.stage2_mmu.stage2_tlb.flush_tlb_mva            0                       # Number of times TLB was flushed by MVA
system.cpu.dtb.stage2_mmu.stage2_tlb.flush_tlb_mva_asid            0                       # Number of times TLB was flushed by MVA & ASID
system.cpu.dtb.stage2_mmu.stage2_tlb.hits            0                       # DTB hits
system.cpu.dtb.stage2_mmu.stage2_tlb.inst_accesses            0                       # ITB inst accesses
system.cpu.dtb.stage2_mmu.stage2_tlb.inst_hits            0                       # ITB inst hits
system.cpu.dtb.stage2_mmu.stage2_tlb.inst_misses            0                       # ITB inst misses
system.cpu.dtb.stage2_mmu.stage2_tlb.misses            0                       # DTB misses
system.cpu.dtb.stage2_mmu.stage2_tlb.perms_faults            0                       # Number of TLB faults due to permissions restrictions
system.cpu.dtb.stage2_mmu.stage2_tlb.prefetch_faults            0                       # Number of TLB faults due to prefetch
system.cpu.dtb.stage2_mmu.stage2_tlb.read_accesses            0                       # DTB read accesses
system.cpu.dtb.stage2_mmu.stage2_tlb.read_hits            0                       # DTB read hits
system.cpu.dtb.stage2_mmu.stage2_tlb.read_misses            0                       # DTB read misses
system.cpu.dtb.stage2_mmu.stage2_tlb.walker.walkRequestOrigin_Requested::Data            0                       # Table walker requests started/completed, data/inst
system.cpu.dtb.stage2_mmu.stage2_tlb.walker.walkRequestOrigin_Requested::Inst            0                       # Table walker requests started/completed, data/inst
system.cpu.dtb.stage2_mmu.stage2_tlb.walker.walkRequestOrigin_Requested::total            0                       # Table walker requests started/completed, data/inst
system.cpu.dtb.stage2_mmu.stage2_tlb.walker.walkRequestOrigin_Completed::Data            0                       # Table walker requests started/completed, data/inst
system.cpu.dtb.stage2_mmu.stage2_tlb.walker.walkRequestOrigin_Completed::Inst            0                       # Table walker requests started/completed, data/inst
system.cpu.dtb.stage2_mmu.stage2_tlb.walker.walkRequestOrigin_Completed::total            0                       # Table walker requests started/completed, data/inst
system.cpu.dtb.stage2_mmu.stage2_tlb.walker.walkRequestOrigin::total            0                       # Table walker requests started/completed, data/inst
system.cpu.dtb.stage2_mmu.stage2_tlb.walker.walks            0                       # Table walker walks requested
system.cpu.dtb.stage2_mmu.stage2_tlb.write_accesses            0                       # DTB write accesses
system.cpu.dtb.stage2_mmu.stage2_tlb.write_hits            0                       # DTB write hits
system.cpu.dtb.stage2_mmu.stage2_tlb.write_misses            0                       # DTB write misses
system.cpu.dtb.walker.walkRequestOrigin_Requested::Data            0                       # Table walker requests started/completed, data/inst
system.cpu.dtb.walker.walkRequestOrigin_Requested::Inst            0                       # Table walker requests started/completed, data/inst
system.cpu.dtb.walker.walkRequestOrigin_Requested::total            0                       # Table walker requests started/completed, data/inst
system.cpu.dtb.walker.walkRequestOrigin_Completed::Data            0                       # Table walker requests started/completed, data/inst
system.cpu.dtb.walker.walkRequestOrigin_Completed::Inst            0                       # Table walker requests started/completed, data/inst
system.cpu.dtb.walker.walkRequestOrigin_Completed::total            0                       # Table walker requests started/completed, data/inst
system.cpu.dtb.walker.walkRequestOrigin::total            0                       # Table walker requests started/completed, data/inst
system.cpu.dtb.walker.walks                         0                       # Table walker walks requested
system.cpu.dtb.write_accesses                       0                       # DTB write accesses
system.cpu.dtb.write_hits                           0                       # DTB write hits
system.cpu.dtb.write_misses                         0                       # DTB write misses
system.cpu.fetch2.amo_instructions                  0                       # Number of memory atomic instructions successfully decoded
system.cpu.fetch2.fp_instructions                   0                       # Number of floating point instructions successfully decoded
system.cpu.fetch2.int_instructions           48958286                       # Number of integer instructions successfully decoded
system.cpu.fetch2.load_instructions          40609427                       # Number of memory load instructions successfully decoded
system.cpu.fetch2.store_instructions          6267532                       # Number of memory store instructions successfully decoded
system.cpu.fetch2.vec_instructions                  0                       # Number of SIMD instructions successfully decoded
system.cpu.idleCycles                         2297442                       # Total number of cycles that the object has spent stopped
system.cpu.ipc                               0.847853                       # IPC: instructions per cycle
system.cpu.itb.accesses                             0                       # DTB accesses
system.cpu.itb.align_faults                         0                       # Number of TLB faults due to alignment restrictions
system.cpu.itb.domain_faults                        0                       # Number of TLB faults due to domain restrictions
system.cpu.itb.flush_entries                        0                       # Number of entries that have been flushed from TLB
system.cpu.itb.flush_tlb                            0                       # Number of times complete TLB was flushed
system.cpu.itb.flush_tlb_asid                       0                       # Number of times TLB was flushed by ASID
system.cpu.itb.flush_tlb_mva                        0                       # Number of times TLB was flushed by MVA
system.cpu.itb.flush_tlb_mva_asid                   0                       # Number of times TLB was flushed by MVA & ASID
system.cpu.itb.hits                                 0                       # DTB hits
system.cpu.itb.inst_accesses                        0                       # ITB inst accesses
system.cpu.itb.inst_hits                            0                       # ITB inst hits
system.cpu.itb.inst_misses                          0                       # ITB inst misses
system.cpu.itb.misses                               0                       # DTB misses
system.cpu.itb.perms_faults                         0                       # Number of TLB faults due to permissions restrictions
system.cpu.itb.prefetch_faults                      0                       # Number of TLB faults due to prefetch
system.cpu.itb.read_accesses                        0                       # DTB read accesses
system.cpu.itb.read_hits                            0                       # DTB read hits
system.cpu.itb.read_misses                          0                       # DTB read misses
system.cpu.itb.stage2_mmu.stage2_tlb.accesses            0                       # DTB accesses
system.cpu.itb.stage2_mmu.stage2_tlb.align_faults            0                       # Number of TLB faults due to alignment restrictions
system.cpu.itb.stage2_mmu.stage2_tlb.domain_faults            0                       # Number of TLB faults due to domain restrictions
system.cpu.itb.stage2_mmu.stage2_tlb.flush_entries            0                       # Number of entries that have been flushed from TLB
system.cpu.itb.stage2_mmu.stage2_tlb.flush_tlb            0                       # Number of times complete TLB was flushed
system.cpu.itb.stage2_mmu.stage2_tlb.flush_tlb_asid            0                       # Number of times TLB was flushed by ASID
system.cpu.itb.stage2_mmu.stage2_tlb.flush_tlb_mva            0                       # Number of times TLB was flushed by MVA
system.cpu.itb.stage2_mmu.stage2_tlb.flush_tlb_mva_asid            0                       # Number of times TLB was flushed by MVA & ASID
system.cpu.itb.stage2_mmu.stage2_tlb.hits            0                       # DTB hits
system.cpu.itb.stage2_mmu.stage2_tlb.inst_accesses            0                       # ITB inst accesses
system.cpu.itb.stage2_mmu.stage2_tlb.inst_hits            0                       # ITB inst hits
system.cpu.itb.stage2_mmu.stage2_tlb.inst_misses            0                       # ITB inst misses
system.cpu.itb.stage2_mmu.stage2_tlb.misses            0                       # DTB misses
system.cpu.itb.stage2_mmu.stage2_tlb.perms_faults            0                       # Number of TLB faults due to permissions restrictions
system.cpu.itb.stage2_mmu.stage2_tlb.prefetch_faults            0                       # Number of TLB faults due to prefetch
system.cpu.itb.stage2_mmu.stage2_tlb.read_accesses            0                       # DTB read accesses
system.cpu.itb.stage2_mmu.stage2_tlb.read_hits            0                       # DTB read hits
system.cpu.itb.stage2_mmu.stage2_tlb.read_misses            0                       # DTB read misses
system.cpu.itb.stage2_mmu.stage2_tlb.walker.walkRequestOrigin_Requested::Data            0                       # Table walker requests started/completed, data/inst
system.cpu.itb.stage2_mmu.stage2_tlb.walker.walkRequestOrigin_Requested::Inst            0                       # Table walker requests started/completed, data/inst
system.cpu.itb.stage2_mmu.stage2_tlb.walker.walkRequestOrigin_Requested::total            0                       # Table walker requests started/completed, data/inst
system.cpu.itb.stage2_mmu.stage2_tlb.walker.walkRequestOrigin_Completed::Data            0                       # Table walker requests started/completed, data/inst
system.cpu.itb.stage2_mmu.stage2_tlb.walker.walkRequestOrigin_Completed::Inst            0                       # Table walker requests started/completed, data/inst
system.cpu.itb.stage2_mmu.stage2_tlb.walker.walkRequestOrigin_Completed::total            0                       # Table walker requests started/completed, data/inst
system.cpu.itb.stage2_mmu.stage2_tlb.walker.walkRequestOrigin::total            0                       # Table walker requests started/completed, data/inst
system.cpu.itb.stage2_mmu.stage2_tlb.walker.walks            0                       # Table walker walks requested
system.cpu.itb.stage2_mmu.stage2_tlb.write_accesses            0                       # DTB write accesses
system.cpu.itb.stage2_mmu.stage2_tlb.write_hits            0                       # DTB write hits
system.cpu.itb.stage2_mmu.stage2_tlb.write_misses            0                       # DTB write misses
system.cpu.itb.walker.walkRequestOrigin_Requested::Data            0                       # Table walker requests started/completed, data/inst
system.cpu.itb.walker.walkRequestOrigin_Requested::Inst            0                       # Table walker requests started/completed, data/inst
system.cpu.itb.walker.walkRequestOrigin_Requested::total            0                       # Table walker requests started/completed, data/inst
system.cpu.itb.walker.walkRequestOrigin_Completed::Data            0                       # Table walker requests started/completed, data/inst
system.cpu.itb.walker.walkRequestOrigin_Completed::Inst            0                       # Table walker requests started/completed, data/inst
system.cpu.itb.walker.walkRequestOrigin_Completed::total            0                       # Table walker requests started/completed, data/inst
system.cpu.itb.walker.walkRequestOrigin::total            0                       # Table walker requests started/completed, data/inst
system.cpu.itb.walker.walks                         0                       # Table walker walks requested
system.cpu.itb.write_accesses                       0                       # DTB write accesses
system.cpu.itb.write_hits                           0                       # DTB write hits
system.cpu.itb.write_misses                         0                       # DTB write misses
system.cpu.numCycles                        117944959                       # number of cpu cycles simulated
system.cpu.numFetchSuspends                         0                       # Number of times Execute suspended instruction fetching
system.cpu.numWorkItemsCompleted                    0                       # number of work items this cpu completed
system.cpu.numWorkItemsStarted                      0                       # number of work items this cpu started
system.cpu.op_class_0::No_OpClass                   0      0.00%      0.00% # Class of committed instruction
system.cpu.op_class_0::IntAlu                55115655     54.51%     54.51% # Class of committed instruction
system.cpu.op_class_0::IntMult                 167845      0.17%     54.68% # Class of committed instruction
system.cpu.op_class_0::IntDiv                       0      0.00%     54.68% # Class of committed instruction
system.cpu.op_class_0::FloatAdd                     0      0.00%     54.68% # Class of committed instruction
system.cpu.op_class_0::FloatCmp                     0      0.00%     54.68% # Class of committed instruction
system.cpu.op_class_0::FloatCvt                     0      0.00%     54.68% # Class of committed instruction
system.cpu.op_class_0::FloatMult                    0      0.00%     54.68% # Class of committed instruction
system.cpu.op_class_0::FloatMultAcc                 0      0.00%     54.68% # Class of committed instruction
system.cpu.op_class_0::FloatDiv                     0      0.00%     54.68% # Class of committed instruction
system.cpu.op_class_0::FloatMisc                    0      0.00%     54.68% # Class of committed instruction
system.cpu.op_class_0::FloatSqrt                    0      0.00%     54.68% # Class of committed instruction
system.cpu.op_class_0::SimdAdd                    380      0.00%     54.68% # Class of committed instruction
system.cpu.op_class_0::SimdAddAcc                   0      0.00%     54.68% # Class of committed instruction
system.cpu.op_class_0::SimdAlu                    470      0.00%     54.68% # Class of committed instruction
system.cpu.op_class_0::SimdCmp                    382      0.00%     54.68% # Class of committed instruction
system.cpu.op_class_0::SimdCvt                      0      0.00%     54.68% # Class of committed instruction
system.cpu.op_class_0::SimdMisc                    53      0.00%     54.68% # Class of committed instruction
system.cpu.op_class_0::SimdMult                     0      0.00%     54.68% # Class of committed instruction
system.cpu.op_class_0::SimdMultAcc                  0      0.00%     54.68% # Class of committed instruction
system.cpu.op_class_0::SimdShift                    0      0.00%     54.68% # Class of committed instruction
system.cpu.op_class_0::SimdShiftAcc                 0      0.00%     54.68% # Class of committed instruction
system.cpu.op_class_0::SimdDiv                      0      0.00%     54.68% # Class of committed instruction
system.cpu.op_class_0::SimdSqrt                     0      0.00%     54.68% # Class of committed instruction
system.cpu.op_class_0::SimdFloatAdd            267609      0.26%     54.95% # Class of committed instruction
system.cpu.op_class_0::SimdFloatAlu                 0      0.00%     54.95% # Class of committed instruction
system.cpu.op_class_0::SimdFloatCmp            259630      0.26%     55.20% # Class of committed instruction
system.cpu.op_class_0::SimdFloatCvt            161456      0.16%     55.36% # Class of committed instruction
system.cpu.op_class_0::SimdFloatDiv             54308      0.05%     55.42% # Class of committed instruction
system.cpu.op_class_0::SimdFloatMisc           483618      0.48%     55.90% # Class of committed instruction
system.cpu.op_class_0::SimdFloatMult            33524      0.03%     55.93% # Class of committed instruction
system.cpu.op_class_0::SimdFloatMultAcc         11115      0.01%     55.94% # Class of committed instruction
system.cpu.op_class_0::SimdFloatSqrt                0      0.00%     55.94% # Class of committed instruction
system.cpu.op_class_0::SimdReduceAdd                0      0.00%     55.94% # Class of committed instruction
system.cpu.op_class_0::SimdReduceAlu                0      0.00%     55.94% # Class of committed instruction
system.cpu.op_class_0::SimdReduceCmp                0      0.00%     55.94% # Class of committed instruction
system.cpu.op_class_0::SimdFloatReduceAdd            0      0.00%     55.94% # Class of committed instruction
system.cpu.op_class_0::SimdFloatReduceCmp            0      0.00%     55.94% # Class of committed instruction
system.cpu.op_class_0::SimdAes                      0      0.00%     55.94% # Class of committed instruction
system.cpu.op_class_0::SimdAesMix                   0      0.00%     55.94% # Class of committed instruction
system.cpu.op_class_0::SimdSha1Hash                 0      0.00%     55.94% # Class of committed instruction
system.cpu.op_class_0::SimdSha1Hash2                0      0.00%     55.94% # Class of committed instruction
system.cpu.op_class_0::SimdSha256Hash               0      0.00%     55.94% # Class of committed instruction
system.cpu.op_class_0::SimdSha256Hash2              0      0.00%     55.94% # Class of committed instruction
system.cpu.op_class_0::SimdShaSigma2                0      0.00%     55.94% # Class of committed instruction
system.cpu.op_class_0::SimdShaSigma3                0      0.00%     55.94% # Class of committed instruction
system.cpu.op_class_0::SimdPredAlu                  0      0.00%     55.94% # Class of committed instruction
system.cpu.op_class_0::MemRead               38167638     37.75%     93.69% # Class of committed instruction
system.cpu.op_class_0::MemWrite               6379046      6.31%    100.00% # Class of committed instruction
system.cpu.op_class_0::FloatMemRead                 0      0.00%    100.00% # Class of committed instruction
system.cpu.op_class_0::FloatMemWrite                0      0.00%    100.00% # Class of committed instruction
system.cpu.op_class_0::IprAccess                    0      0.00%    100.00% # Class of committed instruction
system.cpu.op_class_0::InstPrefetch                 0      0.00%    100.00% # Class of committed instruction
system.cpu.op_class_0::total                101102729                       # Class of committed instruction
system.cpu.tickCycles                       115647517                       # Number of cycles that the object actually ticked
system.cpu.workload.numSyscalls                    32                       # Number of system calls
system.membus.snoop_filter.hit_multi_requests            0                       # Number of requests hitting in the snoop filter with multiple (>1) holders of the requested data.
system.membus.snoop_filter.hit_multi_snoops            0                       # Number of snoops hitting in the snoop filter with multiple (>1) holders of the requested data.
system.membus.snoop_filter.hit_single_requests            0                       # Number of requests hitting in the snoop filter with a single holder of the requested data.
system.membus.snoop_filter.hit_single_snoops            0                       # Number of snoops hitting in the snoop filter with a single holder of the requested data.
system.membus.snoop_filter.tot_requests          2946                       # Total number of requests made to the snoop filter.
system.membus.snoop_filter.tot_snoops               0                       # Total number of snoops made to the snoop filter.
system.tol2bus.snoop_filter.hit_multi_requests          286                       # Number of requests hitting in the snoop filter with multiple (>1) holders of the requested data.
system.tol2bus.snoop_filter.hit_multi_snoops            0                       # Number of snoops hitting in the snoop filter with multiple (>1) holders of the requested data.
system.tol2bus.snoop_filter.hit_single_requests         9938                       # Number of requests hitting in the snoop filter with a single holder of the requested data.
system.tol2bus.snoop_filter.hit_single_snoops            0                       # Number of snoops hitting in the snoop filter with a single holder of the requested data.
system.tol2bus.snoop_filter.tot_requests        21662                       # Total number of requests made to the snoop filter.
system.tol2bus.snoop_filter.tot_snoops              0                       # Total number of snoops made to the snoop filter.
system.membus.pwrStateResidencyTicks::UNDEFINED  58972479500                       # Cumulative time (in ticks) in various power states
system.membus.trans_dist::ReadResp               1101                       # Transaction distribution
system.membus.trans_dist::ReadExReq              1845                       # Transaction distribution
system.membus.trans_dist::ReadExResp             1845                       # Transaction distribution
system.membus.trans_dist::ReadSharedReq          1101                       # Transaction distribution
system.membus.pkt_count_system.l2.mem_side::system.mem_ctrls.port         5892                       # Packet count per connected master and slave (bytes)
system.membus.pkt_count::total                   5892                       # Packet count per connected master and slave (bytes)
system.membus.pkt_size_system.l2.mem_side::system.mem_ctrls.port       377088                       # Cumulative packet size per connected master and slave (bytes)
system.membus.pkt_size::total                  377088                       # Cumulative packet size per connected master and slave (bytes)
system.membus.snoops                                0                       # Total snoops (count)
system.membus.snoopTraffic                          0                       # Total snoop traffic (bytes)
system.membus.snoop_fanout::samples              2946                       # Request fanout histogram
system.membus.snoop_fanout::mean                    0                       # Request fanout histogram
system.membus.snoop_fanout::stdev                   0                       # Request fanout histogram
system.membus.snoop_fanout::underflows              0      0.00%      0.00% # Request fanout histogram
system.membus.snoop_fanout::0                    2946    100.00%    100.00% # Request fanout histogram
system.membus.snoop_fanout::1                       0      0.00%    100.00% # Request fanout histogram
system.membus.snoop_fanout::overflows               0      0.00%    100.00% # Request fanout histogram
system.membus.snoop_fanout::min_value               0                       # Request fanout histogram
system.membus.snoop_fanout::max_value               0                       # Request fanout histogram
system.membus.snoop_fanout::total                2946                       # Request fanout histogram
system.membus.respLayer1.occupancy           27547500                       # Layer occupancy (ticks)
system.membus.respLayer1.utilization              0.0                       # Layer utilization (%)
system.membus.reqLayer0.occupancy             3541000                       # Layer occupancy (ticks)
system.membus.reqLayer0.utilization               0.0                       # Layer utilization (%)
system.tol2bus.pwrStateResidencyTicks::UNDEFINED  58972479500                       # Cumulative time (in ticks) in various power states
system.tol2bus.trans_dist::ReadResp              3196                       # Transaction distribution
system.tol2bus.trans_dist::WritebackDirty         9267                       # Transaction distribution
system.tol2bus.trans_dist::WritebackClean           61                       # Transaction distribution
system.tol2bus.trans_dist::CleanEvict             595                       # Transaction distribution
system.tol2bus.trans_dist::ReadExReq             8543                       # Transaction distribution
system.tol2bus.trans_dist::ReadExResp            8543                       # Transaction distribution
system.tol2bus.trans_dist::ReadCleanReq           853                       # Transaction distribution
system.tol2bus.trans_dist::ReadSharedReq         2343                       # Transaction distribution
system.tol2bus.pkt_count_system.cpu.icache.mem_side::system.l2.cpu_side         1767                       # Packet count per connected master and slave (bytes)
system.tol2bus.pkt_count_system.cpu.dcache.mem_side::system.l2.cpu_side        31634                       # Packet count per connected master and slave (bytes)
system.tol2bus.pkt_count::total                 33401                       # Packet count per connected master and slave (bytes)
system.tol2bus.pkt_size_system.cpu.icache.mem_side::system.l2.cpu_side       116992                       # Cumulative packet size per connected master and slave (bytes)
system.tol2bus.pkt_size_system.cpu.dcache.mem_side::system.l2.cpu_side      2579584                       # Cumulative packet size per connected master and slave (bytes)
system.tol2bus.pkt_size::total                2696576                       # Cumulative packet size per connected master and slave (bytes)
system.tol2bus.snoops                               0                       # Total snoops (count)
system.tol2bus.snoopTraffic                         0                       # Total snoop traffic (bytes)
system.tol2bus.snoop_fanout::samples            11739                       # Request fanout histogram
system.tol2bus.snoop_fanout::mean            0.025641                       # Request fanout histogram
system.tol2bus.snoop_fanout::stdev           0.158069                       # Request fanout histogram
system.tol2bus.snoop_fanout::underflows             0      0.00%      0.00% # Request fanout histogram
system.tol2bus.snoop_fanout::0                  11438     97.44%     97.44% # Request fanout histogram
system.tol2bus.snoop_fanout::1                    301      2.56%    100.00% # Request fanout histogram
system.tol2bus.snoop_fanout::2                      0      0.00%    100.00% # Request fanout histogram
system.tol2bus.snoop_fanout::overflows              0      0.00%    100.00% # Request fanout histogram
system.tol2bus.snoop_fanout::min_value              0                       # Request fanout histogram
system.tol2bus.snoop_fanout::max_value              1                       # Request fanout histogram
system.tol2bus.snoop_fanout::total              11739                       # Request fanout histogram
system.tol2bus.reqLayer0.occupancy           29487000                       # Layer occupancy (ticks)
system.tol2bus.reqLayer0.utilization              0.1                       # Layer utilization (%)
system.tol2bus.respLayer1.occupancy          27218493                       # Layer occupancy (ticks)
system.tol2bus.respLayer1.utilization             0.0                       # Layer utilization (%)
system.tol2bus.respLayer0.occupancy           2133498                       # Layer occupancy (ticks)
system.tol2bus.respLayer0.utilization             0.0                       # Layer utilization (%)
system.voltage_domain.voltage                       1                       # Voltage in Volts
system.clk_domain.clock                          1000                       # Clock period in ticks
system.l2.pwrStateResidencyTicks::UNDEFINED  58972479500                       # Cumulative time (in ticks) in various power states
system.l2.demand_hits::.cpu.inst                   53                       # number of demand (read+write) hits
system.l2.demand_hits::.cpu.data                 8731                       # number of demand (read+write) hits
system.l2.demand_hits::total                     8784                       # number of demand (read+write) hits
system.l2.overall_hits::.cpu.inst                  53                       # number of overall hits
system.l2.overall_hits::.cpu.data                8731                       # number of overall hits
system.l2.overall_hits::total                    8784                       # number of overall hits
system.l2.demand_misses::.cpu.inst                800                       # number of demand (read+write) misses
system.l2.demand_misses::.cpu.data               2155                       # number of demand (read+write) misses
system.l2.demand_misses::total                   2955                       # number of demand (read+write) misses
system.l2.overall_misses::.cpu.inst               800                       # number of overall misses
system.l2.overall_misses::.cpu.data              2155                       # number of overall misses
system.l2.overall_misses::total                  2955                       # number of overall misses
system.l2.demand_miss_latency::.cpu.inst     65999500                       # number of demand (read+write) miss cycles
system.l2.demand_miss_latency::.cpu.data    185484000                       # number of demand (read+write) miss cycles
system.l2.demand_miss_latency::total        251483500                       # number of demand (read+write) miss cycles
system.l2.overall_miss_latency::.cpu.inst     65999500                       # number of overall miss cycles
system.l2.overall_miss_latency::.cpu.data    185484000                       # number of overall miss cycles
system.l2.overall_miss_latency::total       251483500                       # number of overall miss cycles
system.l2.demand_accesses::.cpu.inst              853                       # number of demand (read+write) accesses
system.l2.demand_accesses::.cpu.data            10886                       # number of demand (read+write) accesses
system.l2.demand_accesses::total                11739                       # number of demand (read+write) accesses
system.l2.overall_accesses::.cpu.inst             853                       # number of overall (read+write) accesses
system.l2.overall_accesses::.cpu.data           10886                       # number of overall (read+write) accesses
system.l2.overall_accesses::total               11739                       # number of overall (read+write) accesses
system.l2.demand_miss_rate::.cpu.inst        0.937866                       # miss rate for demand accesses
system.l2.demand_miss_rate::.cpu.data        0.197961                       # miss rate for demand accesses
system.l2.demand_miss_rate::total            0.251725                       # miss rate for demand accesses
system.l2.overall_miss_rate::.cpu.inst       0.937866                       # miss rate for overall accesses
system.l2.overall_miss_rate::.cpu.data       0.197961                       # miss rate for overall accesses
system.l2.overall_miss_rate::total           0.251725                       # miss rate for overall accesses
system.l2.demand_avg_miss_latency::.cpu.inst 82499.375000                       # average overall miss latency
system.l2.demand_avg_miss_latency::.cpu.data 86071.461717                       # average overall miss latency
system.l2.demand_avg_miss_latency::total 85104.399323                       # average overall miss latency
system.l2.overall_avg_miss_latency::.cpu.inst 82499.375000                       # average overall miss latency
system.l2.overall_avg_miss_latency::.cpu.data 86071.461717                       # average overall miss latency
system.l2.overall_avg_miss_latency::total 85104.399323                       # average overall miss latency
system.l2.blocked_cycles::no_mshrs                  0                       # number of cycles access was blocked
system.l2.blocked_cycles::no_targets                0                       # number of cycles access was blocked
system.l2.blocked::no_mshrs                         0                       # number of cycles access was blocked
system.l2.blocked::no_targets                       0                       # number of cycles access was blocked
system.l2.avg_blocked_cycles::no_mshrs            nan                       # average number of cycles each access was blocked
system.l2.avg_blocked_cycles::no_targets          nan                       # average number of cycles each access was blocked
system.l2.demand_mshr_hits::.cpu.inst               2                       # number of demand (read+write) MSHR hits
system.l2.demand_mshr_hits::.cpu.data               7                       # number of demand (read+write) MSHR hits
system.l2.demand_mshr_hits::total                   9                       # number of demand (read+write) MSHR hits
system.l2.overall_mshr_hits::.cpu.inst              2                       # number of overall MSHR hits
system.l2.overall_mshr_hits::.cpu.data              7                       # number of overall MSHR hits
system.l2.overall_mshr_hits::total                  9                       # number of overall MSHR hits
system.l2.demand_mshr_misses::.cpu.inst           798                       # number of demand (read+write) MSHR misses
system.l2.demand_mshr_misses::.cpu.data          2148                       # number of demand (read+write) MSHR misses
system.l2.demand_mshr_misses::total              2946                       # number of demand (read+write) MSHR misses
system.l2.overall_mshr_misses::.cpu.inst          798                       # number of overall MSHR misses
system.l2.overall_mshr_misses::.cpu.data         2148                       # number of overall MSHR misses
system.l2.overall_mshr_misses::total             2946                       # number of overall MSHR misses
system.l2.demand_mshr_miss_latency::.cpu.inst     57907500                       # number of demand (read+write) MSHR miss cycles
system.l2.demand_mshr_miss_latency::.cpu.data    163439000                       # number of demand (read+write) MSHR miss cycles
system.l2.demand_mshr_miss_latency::total    221346500                       # number of demand (read+write) MSHR miss cycles
system.l2.overall_mshr_miss_latency::.cpu.inst     57907500                       # number of overall MSHR miss cycles
system.l2.overall_mshr_miss_latency::.cpu.data    163439000                       # number of overall MSHR miss cycles
system.l2.overall_mshr_miss_latency::total    221346500                       # number of overall MSHR miss cycles
system.l2.demand_mshr_miss_rate::.cpu.inst     0.935522                       # mshr miss rate for demand accesses
system.l2.demand_mshr_miss_rate::.cpu.data     0.197318                       # mshr miss rate for demand accesses
system.l2.demand_mshr_miss_rate::total       0.250958                       # mshr miss rate for demand accesses
system.l2.overall_mshr_miss_rate::.cpu.inst     0.935522                       # mshr miss rate for overall accesses
system.l2.overall_mshr_miss_rate::.cpu.data     0.197318                       # mshr miss rate for overall accesses
system.l2.overall_mshr_miss_rate::total      0.250958                       # mshr miss rate for overall accesses
system.l2.demand_avg_mshr_miss_latency::.cpu.inst 72565.789474                       # average overall mshr miss latency
system.l2.demand_avg_mshr_miss_latency::.cpu.data 76088.919926                       # average overall mshr miss latency
system.l2.demand_avg_mshr_miss_latency::total 75134.589274                       # average overall mshr miss latency
system.l2.overall_avg_mshr_miss_latency::.cpu.inst 72565.789474                       # average overall mshr miss latency
system.l2.overall_avg_mshr_miss_latency::.cpu.data 76088.919926                       # average overall mshr miss latency
system.l2.overall_avg_mshr_miss_latency::total 75134.589274                       # average overall mshr miss latency
system.l2.replacements                              0                       # number of replacements
system.l2.WritebackDirty_hits::.writebacks         9267                       # number of WritebackDirty hits
system.l2.WritebackDirty_hits::total             9267                       # number of WritebackDirty hits
system.l2.WritebackDirty_accesses::.writebacks         9267                       # number of WritebackDirty accesses(hits+misses)
system.l2.WritebackDirty_accesses::total         9267                       # number of WritebackDirty accesses(hits+misses)
system.l2.WritebackClean_hits::.writebacks           56                       # number of WritebackClean hits
system.l2.WritebackClean_hits::total               56                       # number of WritebackClean hits
system.l2.WritebackClean_accesses::.writebacks           56                       # number of WritebackClean accesses(hits+misses)
system.l2.WritebackClean_accesses::total           56                       # number of WritebackClean accesses(hits+misses)
system.l2.ReadExReq_hits::.cpu.data              6698                       # number of ReadExReq hits
system.l2.ReadExReq_hits::total                  6698                       # number of ReadExReq hits
system.l2.ReadExReq_misses::.cpu.data            1845                       # number of ReadExReq misses
system.l2.ReadExReq_misses::total                1845                       # number of ReadExReq misses
system.l2.ReadExReq_miss_latency::.cpu.data    156825500                       # number of ReadExReq miss cycles
system.l2.ReadExReq_miss_latency::total     156825500                       # number of ReadExReq miss cycles
system.l2.ReadExReq_accesses::.cpu.data          8543                       # number of ReadExReq accesses(hits+misses)
system.l2.ReadExReq_accesses::total              8543                       # number of ReadExReq accesses(hits+misses)
system.l2.ReadExReq_miss_rate::.cpu.data     0.215966                       # miss rate for ReadExReq accesses
system.l2.ReadExReq_miss_rate::total         0.215966                       # miss rate for ReadExReq accesses
system.l2.ReadExReq_avg_miss_latency::.cpu.data 85000.271003                       # average ReadExReq miss latency
system.l2.ReadExReq_avg_miss_latency::total 85000.271003                       # average ReadExReq miss latency
system.l2.ReadExReq_mshr_misses::.cpu.data         1845                       # number of ReadExReq MSHR misses
system.l2.ReadExReq_mshr_misses::total           1845                       # number of ReadExReq MSHR misses
system.l2.ReadExReq_mshr_miss_latency::.cpu.data    138375500                       # number of ReadExReq MSHR miss cycles
system.l2.ReadExReq_mshr_miss_latency::total    138375500                       # number of ReadExReq MSHR miss cycles
system.l2.ReadExReq_mshr_miss_rate::.cpu.data     0.215966                       # mshr miss rate for ReadExReq accesses
system.l2.ReadExReq_mshr_miss_rate::total     0.215966                       # mshr miss rate for ReadExReq accesses
system.l2.ReadExReq_avg_mshr_miss_latency::.cpu.data 75000.271003                       # average ReadExReq mshr miss latency
system.l2.ReadExReq_avg_mshr_miss_latency::total 75000.271003                       # average ReadExReq mshr miss latency
system.l2.ReadCleanReq_hits::.cpu.inst             53                       # number of ReadCleanReq hits
system.l2.ReadCleanReq_hits::total                 53                       # number of ReadCleanReq hits
system.l2.ReadCleanReq_misses::.cpu.inst          800                       # number of ReadCleanReq misses
system.l2.ReadCleanReq_misses::total              800                       # number of ReadCleanReq misses
system.l2.ReadCleanReq_miss_latency::.cpu.inst     65999500                       # number of ReadCleanReq miss cycles
system.l2.ReadCleanReq_miss_latency::total     65999500                       # number of ReadCleanReq miss cycles
system.l2.ReadCleanReq_accesses::.cpu.inst          853                       # number of ReadCleanReq accesses(hits+misses)
system.l2.ReadCleanReq_accesses::total            853                       # number of ReadCleanReq accesses(hits+misses)
system.l2.ReadCleanReq_miss_rate::.cpu.inst     0.937866                       # miss rate for ReadCleanReq accesses
system.l2.ReadCleanReq_miss_rate::total      0.937866                       # miss rate for ReadCleanReq accesses
system.l2.ReadCleanReq_avg_miss_latency::.cpu.inst 82499.375000                       # average ReadCleanReq miss latency
system.l2.ReadCleanReq_avg_miss_latency::total 82499.375000                       # average ReadCleanReq miss latency
system.l2.ReadCleanReq_mshr_hits::.cpu.inst            2                       # number of ReadCleanReq MSHR hits
system.l2.ReadCleanReq_mshr_hits::total             2                       # number of ReadCleanReq MSHR hits
system.l2.ReadCleanReq_mshr_misses::.cpu.inst          798                       # number of ReadCleanReq MSHR misses
system.l2.ReadCleanReq_mshr_misses::total          798                       # number of ReadCleanReq MSHR misses
system.l2.ReadCleanReq_mshr_miss_latency::.cpu.inst     57907500                       # number of ReadCleanReq MSHR miss cycles
system.l2.ReadCleanReq_mshr_miss_latency::total     57907500                       # number of ReadCleanReq MSHR miss cycles
system.l2.ReadCleanReq_mshr_miss_rate::.cpu.inst     0.935522                       # mshr miss rate for ReadCleanReq accesses
system.l2.ReadCleanReq_mshr_miss_rate::total     0.935522                       # mshr miss rate for ReadCleanReq accesses
system.l2.ReadCleanReq_avg_mshr_miss_latency::.cpu.inst 72565.789474                       # average ReadCleanReq mshr miss latency
system.l2.ReadCleanReq_avg_mshr_miss_latency::total 72565.789474                       # average ReadCleanReq mshr miss latency
system.l2.ReadSharedReq_hits::.cpu.data          2033                       # number of ReadSharedReq hits
system.l2.ReadSharedReq_hits::total              2033                       # number of ReadSharedReq hits
system.l2.ReadSharedReq_misses::.cpu.data          310                       # number of ReadSharedReq misses
system.l2.ReadSharedReq_misses::total             310                       # number of ReadSharedReq misses
system.l2.ReadSharedReq_miss_latency::.cpu.data     28658500                       # number of ReadSharedReq miss cycles
system.l2.ReadSharedReq_miss_latency::total     28658500                       # number of ReadSharedReq miss cycles
system.l2.ReadSharedReq_accesses::.cpu.data         2343                       # number of ReadSharedReq accesses(hits+misses)
system.l2.ReadSharedReq_accesses::total          2343                       # number of ReadSharedReq accesses(hits+misses)
system.l2.ReadSharedReq_miss_rate::.cpu.data     0.132309                       # miss rate for ReadSharedReq accesses
system.l2.ReadSharedReq_miss_rate::total     0.132309                       # miss rate for ReadSharedReq accesses
system.l2.ReadSharedReq_avg_miss_latency::.cpu.data 92446.774194                       # average ReadSharedReq miss latency
system.l2.ReadSharedReq_avg_miss_latency::total 92446.774194                       # average ReadSharedReq miss latency
system.l2.ReadSharedReq_mshr_hits::.cpu.data            7                       # number of ReadSharedReq MSHR hits
system.l2.ReadSharedReq_mshr_hits::total            7                       # number of ReadSharedReq MSHR hits
system.l2.ReadSharedReq_mshr_misses::.cpu.data          303                       # number of ReadSharedReq MSHR misses
system.l2.ReadSharedReq_mshr_misses::total          303                       # number of ReadSharedReq MSHR misses
system.l2.ReadSharedReq_mshr_miss_latency::.cpu.data     25063500                       # number of ReadSharedReq MSHR miss cycles
system.l2.ReadSharedReq_mshr_miss_latency::total     25063500                       # number of ReadSharedReq MSHR miss cycles
system.l2.ReadSharedReq_mshr_miss_rate::.cpu.data     0.129321                       # mshr miss rate for ReadSharedReq accesses
system.l2.ReadSharedReq_mshr_miss_rate::total     0.129321                       # mshr miss rate for ReadSharedReq accesses
system.l2.ReadSharedReq_avg_mshr_miss_latency::.cpu.data 82717.821782                       # average ReadSharedReq mshr miss latency
system.l2.ReadSharedReq_avg_mshr_miss_latency::total 82717.821782                       # average ReadSharedReq mshr miss latency
system.l2.tags.pwrStateResidencyTicks::UNDEFINED  58972479500                       # Cumulative time (in ticks) in various power states
system.l2.tags.tagsinuse                  2846.826178                       # Cycle average of tags in use
system.l2.tags.total_refs                       21367                       # Total number of references to valid blocks.
system.l2.tags.sampled_refs                      2946                       # Sample count of references to valid blocks.
system.l2.tags.avg_refs                      7.252885                       # Average number of references to valid blocks.
system.l2.tags.warmup_cycle                     82000                       # Cycle when the warmup percentage was hit.
system.l2.tags.occ_blocks::.cpu.inst       795.300354                       # Average occupied blocks per requestor
system.l2.tags.occ_blocks::.cpu.data      2051.525824                       # Average occupied blocks per requestor
system.l2.tags.occ_percent::.cpu.inst        0.048541                       # Average percentage of cache occupancy
system.l2.tags.occ_percent::.cpu.data        0.125215                       # Average percentage of cache occupancy
system.l2.tags.occ_percent::total            0.173756                       # Average percentage of cache occupancy
system.l2.tags.occ_task_id_blocks::1024          2946                       # Occupied blocks per task id
system.l2.tags.age_task_id_blocks_1024::4         2946                       # Occupied blocks per task id
system.l2.tags.occ_task_id_percent::1024     0.179810                       # Percentage of cache occupancy per task id
system.l2.tags.tag_accesses                    344962                       # Number of tag accesses
system.l2.tags.data_accesses                   344962                       # Number of data accesses
system.cpu_voltage_domain.voltage                   1                       # Voltage in Volts
system.mem_ctrls.pwrStateResidencyTicks::UNDEFINED  58972479500                       # Cumulative time (in ticks) in various power states
system.mem_ctrls.bytes_read::.cpu.inst         102144                       # Number of bytes read from this memory
system.mem_ctrls.bytes_read::.cpu.data         274944                       # Number of bytes read from this memory
system.mem_ctrls.bytes_read::total             377088                       # Number of bytes read from this memory
system.mem_ctrls.bytes_inst_read::.cpu.inst       102144                       # Number of instructions bytes read from this memory
system.mem_ctrls.bytes_inst_read::total        102144                       # Number of instructions bytes read from this memory
system.mem_ctrls.num_reads::.cpu.inst             798                       # Number of read requests responded to by this memory
system.mem_ctrls.num_reads::.cpu.data            2148                       # Number of read requests responded to by this memory
system.mem_ctrls.num_reads::total                2946                       # Number of read requests responded to by this memory
system.mem_ctrls.bw_read::.cpu.inst           1732062                       # Total read bandwidth from this memory (bytes/s)
system.mem_ctrls.bw_read::.cpu.data           4662242                       # Total read bandwidth from this memory (bytes/s)
system.mem_ctrls.bw_read::total               6394305                       # Total read bandwidth from this memory (bytes/s)
system.mem_ctrls.bw_inst_read::.cpu.inst      1732062                       # Instruction read bandwidth from this memory (bytes/s)
system.mem_ctrls.bw_inst_read::total          1732062                       # Instruction read bandwidth from this memory (bytes/s)
system.mem_ctrls.bw_total::.cpu.inst          1732062                       # Total bandwidth to/from this memory (bytes/s)
system.mem_ctrls.bw_total::.cpu.data          4662242                       # Total bandwidth to/from this memory (bytes/s)
system.mem_ctrls.bw_total::total              6394305                       # Total bandwidth to/from this memory (bytes/s)
system.mem_ctrls.avgPriority_.cpu.inst::samples      1596.00                       # Average QoS priority value for accepted requests
system.mem_ctrls.avgPriority_.cpu.data::samples      4296.00                       # Average QoS priority value for accepted requests
system.mem_ctrls.priorityMinLatency      0.000000018750                       # per QoS priority minimum request to response latency (s)
system.mem_ctrls.priorityMaxLatency      0.000000584000                       # per QoS priority maximum request to response latency (s)
system.mem_ctrls.numReadWriteTurnArounds            0                       # Number of turnarounds from READ to WRITE
system.mem_ctrls.numWriteReadTurnArounds            0                       # Number of turnarounds from WRITE to READ
system.mem_ctrls.numStayReadState               23977                       # Number of times bus staying in READ state
system.mem_ctrls.numStayWriteState                  0                       # Number of times bus staying in WRITE state
system.mem_ctrls.readReqs                        2946                       # Number of read requests accepted
system.mem_ctrls.writeReqs                          0                       # Number of write requests accepted
system.mem_ctrls.readBursts                      5892                       # Number of DRAM read bursts, including those serviced by the write queue
system.mem_ctrls.writeBursts                        0                       # Number of DRAM write bursts, including those merged in the write queue
system.mem_ctrls.servicedByWrQ                      0                       # Number of DRAM read bursts serviced by the write queue
system.mem_ctrls.mergedWrBursts                     0                       # Number of DRAM write bursts merged with an existing one
system.mem_ctrls.neitherReadNorWriteReqs            0                       # Number of requests that are neither read nor write
system.mem_ctrls.perBankRdBursts::0               290                       # Per bank write bursts
system.mem_ctrls.perBankRdBursts::1               322                       # Per bank write bursts
system.mem_ctrls.perBankRdBursts::2               212                       # Per bank write bursts
system.mem_ctrls.perBankRdBursts::3               410                       # Per bank write bursts
system.mem_ctrls.perBankRdBursts::4               458                       # Per bank write bursts
system.mem_ctrls.perBankRdBursts::5               384                       # Per bank write bursts
system.mem_ctrls.perBankRdBursts::6               398                       # Per bank write bursts
system.mem_ctrls.perBankRdBursts::7               422                       # Per bank write bursts
system.mem_ctrls.perBankRdBursts::8               386                       # Per bank write bursts
system.mem_ctrls.perBankRdBursts::9               396                       # Per bank write bursts
system.mem_ctrls.perBankRdBursts::10              446                       # Per bank write bursts
system.mem_ctrls.perBankRdBursts::11              306                       # Per bank write bursts
system.mem_ctrls.perBankRdBursts::12              318                       # Per bank write bursts
system.mem_ctrls.perBankRdBursts::13              364                       # Per bank write bursts
system.mem_ctrls.perBankRdBursts::14              434                       # Per bank write bursts
system.mem_ctrls.perBankRdBursts::15              346                       # Per bank write bursts
system.mem_ctrls.perBankWrBursts::0                 0                       # Per bank write bursts
system.mem_ctrls.perBankWrBursts::1                 0                       # Per bank write bursts
system.mem_ctrls.perBankWrBursts::2                 0                       # Per bank write bursts
system.mem_ctrls.perBankWrBursts::3                 0                       # Per bank write bursts
system.mem_ctrls.perBankWrBursts::4                 0                       # Per bank write bursts
system.mem_ctrls.perBankWrBursts::5                 0                       # Per bank write bursts
system.mem_ctrls.perBankWrBursts::6                 0                       # Per bank write bursts
system.mem_ctrls.perBankWrBursts::7                 0                       # Per bank write bursts
system.mem_ctrls.perBankWrBursts::8                 0                       # Per bank write bursts
system.mem_ctrls.perBankWrBursts::9                 0                       # Per bank write bursts
system.mem_ctrls.perBankWrBursts::10                0                       # Per bank write bursts
system.mem_ctrls.perBankWrBursts::11                0                       # Per bank write bursts
system.mem_ctrls.perBankWrBursts::12                0                       # Per bank write bursts
system.mem_ctrls.perBankWrBursts::13                0                       # Per bank write bursts
system.mem_ctrls.perBankWrBursts::14                0                       # Per bank write bursts
system.mem_ctrls.perBankWrBursts::15                0                       # Per bank write bursts
system.mem_ctrls.avgRdQLen                       2.00                       # Average read queue length when enqueuing
system.mem_ctrls.avgWrQLen                       0.00                       # Average write queue length when enqueuing
system.mem_ctrls.totQLat                     75586000                       # Total ticks spent queuing
system.mem_ctrls.totBusLat                   29460000                       # Total ticks spent in databus transfers
system.mem_ctrls.totMemAccLat               186061000                       # Total ticks spent from burst creation until serviced by the DRAM
system.mem_ctrls.avgQLat                     12828.58                       # Average queueing delay per DRAM burst
system.mem_ctrls.avgBusLat                    5000.00                       # Average bus latency per DRAM burst
system.mem_ctrls.avgMemAccLat                31578.58                       # Average memory access latency per DRAM burst
system.mem_ctrls.numRdRetry                         0                       # Number of times read queue was full causing retry
system.mem_ctrls.numWrRetry                         0                       # Number of times write queue was full causing retry
system.mem_ctrls.readRowHits                     4809                       # Number of row buffer hits during reads
system.mem_ctrls.writeRowHits                       0                       # Number of row buffer hits during writes
system.mem_ctrls.readRowHitRate                 81.62                       # Row buffer hit rate for reads
system.mem_ctrls.writeRowHitRate                  nan                       # Row buffer hit rate for writes
system.mem_ctrls.readPktSize::0                     0                       # Read request sizes (log2)
system.mem_ctrls.readPktSize::1                     0                       # Read request sizes (log2)
system.mem_ctrls.readPktSize::2                     0                       # Read request sizes (log2)
system.mem_ctrls.readPktSize::3                     0                       # Read request sizes (log2)
system.mem_ctrls.readPktSize::4                     0                       # Read request sizes (log2)
system.mem_ctrls.readPktSize::5                     0                       # Read request sizes (log2)
system.mem_ctrls.readPktSize::6                  5892                       # Read request sizes (log2)
system.mem_ctrls.writePktSize::0                    0                       # Write request sizes (log2)
system.mem_ctrls.writePktSize::1                    0                       # Write request sizes (log2)
system.mem_ctrls.writePktSize::2                    0                       # Write request sizes (log2)
system.mem_ctrls.writePktSize::3                    0                       # Write request sizes (log2)
system.mem_ctrls.writePktSize::4                    0                       # Write request sizes (log2)
system.mem_ctrls.writePktSize::5                    0                       # Write request sizes (log2)
system.mem_ctrls.writePktSize::6                    0                       # Write request sizes (log2)
system.mem_ctrls.rdQLenPdf::0                    2809                       # What read queue length does an incoming req see
system.mem_ctrls.rdQLenPdf::1                    2817                       # What read queue length does an incoming req see
system.mem_ctrls.rdQLenPdf::2                     132                       # What read queue length does an incoming req see
system.mem_ctrls.rdQLenPdf::3                     124                       # What read queue length does an incoming req see
system.mem_ctrls.rdQLenPdf::4                       5                       # What read queue length does an incoming req see
system.mem_ctrls.rdQLenPdf::5                       5                       # What read queue length does an incoming req see
system.mem_ctrls.rdQLenPdf::6                       0                       # What read queue length does an incoming req see
system.mem_ctrls.rdQLenPdf::7                       0                       # What read queue length does an incoming req see
system.mem_ctrls.rdQLenPdf::8                       0                       # What read queue length does an incoming req see
system.mem_ctrls.rdQLenPdf::9                       0                       # What read queue length does an incoming req see
system.mem_ctrls.rdQLenPdf::10                      0                       # What read queue length does an incoming req see
system.mem_ctrls.rdQLenPdf::11                      0                       # What read queue length does an incoming req see
system.mem_ctrls.rdQLenPdf::12                      0                       # What read queue length does an incoming req see
system.mem_ctrls.rdQLenPdf::13                      0                       # What read queue length does an incoming req see
system.mem_ctrls.rdQLenPdf::14                      0                       # What read queue length does an incoming req see
system.mem_ctrls.rdQLenPdf::15                      0                       # What read queue length does an incoming req see
system.mem_ctrls.rdQLenPdf::16                      0                       # What read queue length does an incoming req see
system.mem_ctrls.rdQLenPdf::17                      0                       # What read queue length does an incoming req see
system.mem_ctrls.rdQLenPdf::18                      0                       # What read queue length does an incoming req see
system.mem_ctrls.rdQLenPdf::19                      0                       # What read queue length does an incoming req see
system.mem_ctrls.rdQLenPdf::20                      0                       # What read queue length does an incoming req see
system.mem_ctrls.rdQLenPdf::21                      0                       # What read queue length does an incoming req see
system.mem_ctrls.rdQLenPdf::22                      0                       # What read queue length does an incoming req see
system.mem_ctrls.rdQLenPdf::23                      0                       # What read queue length does an incoming req see
system.mem_ctrls.rdQLenPdf::24                      0                       # What read queue length does an incoming req see
system.mem_ctrls.rdQLenPdf::25                      0                       # What read queue length does an incoming req see
system.mem_ctrls.rdQLenPdf::26                      0                       # What read queue length does an incoming req see
system.mem_ctrls.rdQLenPdf::27                      0                       # What read queue length does an incoming req see
system.mem_ctrls.rdQLenPdf::28                      0                       # What read queue length does an incoming req see
system.mem_ctrls.rdQLenPdf::29                      0                       # What read queue length does an incoming req see
system.mem_ctrls.rdQLenPdf::30                      0                       # What read queue length does an incoming req see
system.mem_ctrls.rdQLenPdf::31                      0                       # What read queue length does an incoming req see
system.mem_ctrls.wrQLenPdf::0                       0                       # What write queue length does an incoming req see
system.mem_ctrls.wrQLenPdf::1                       0                       # What write queue length does an incoming req see
system.mem_ctrls.wrQLenPdf::2                       0                       # What write queue length does an incoming req see
system.mem_ctrls.wrQLenPdf::3                       0                       # What write queue length does an incoming req see
system.mem_ctrls.wrQLenPdf::4                       0                       # What write queue length does an incoming req see
system.mem_ctrls.wrQLenPdf::5                       0                       # What write queue length does an incoming req see
system.mem_ctrls.wrQLenPdf::6                       0                       # What write queue length does an incoming req see
system.mem_ctrls.wrQLenPdf::7                       0                       # What write queue length does an incoming req see
system.mem_ctrls.wrQLenPdf::8                       0                       # What write queue length does an incoming req see
system.mem_ctrls.wrQLenPdf::9                       0                       # What write queue length does an incoming req see
system.mem_ctrls.wrQLenPdf::10                      0                       # What write queue length does an incoming req see
system.mem_ctrls.wrQLenPdf::11                      0                       # What write queue length does an incoming req see
system.mem_ctrls.wrQLenPdf::12                      0                       # What write queue length does an incoming req see
system.mem_ctrls.wrQLenPdf::13                      0                       # What write queue length does an incoming req see
system.mem_ctrls.wrQLenPdf::14                      0                       # What write queue length does an incoming req see
system.mem_ctrls.wrQLenPdf::15                      0                       # What write queue length does an incoming req see
system.mem_ctrls.wrQLenPdf::16                      0                       # What write queue length does an incoming req see
system.mem_ctrls.wrQLenPdf::17                      0                       # What write queue length does an incoming req see
system.mem_ctrls.wrQLenPdf::18                      0                       # What write queue length does an incoming req see
system.mem_ctrls.wrQLenPdf::19                      0                       # What write queue length does an incoming req see
system.mem_ctrls.wrQLenPdf::20                      0                       # What write queue length does an incoming req see
system.mem_ctrls.wrQLenPdf::21                      0                       # What write queue length does an incoming req see
system.mem_ctrls.wrQLenPdf::22                      0                       # What write queue length does an incoming req see
system.mem_ctrls.wrQLenPdf::23                      0                       # What write queue length does an incoming req see
system.mem_ctrls.wrQLenPdf::24                      0                       # What write queue length does an incoming req see
system.mem_ctrls.wrQLenPdf::25                      0                       # What write queue length does an incoming req see
system.mem_ctrls.wrQLenPdf::26                      0                       # What write queue length does an incoming req see
system.mem_ctrls.wrQLenPdf::27                      0                       # What write queue length does an incoming req see
system.mem_ctrls.wrQLenPdf::28                      0                       # What write queue length does an incoming req see
system.mem_ctrls.wrQLenPdf::29                      0                       # What write queue length does an incoming req see
system.mem_ctrls.wrQLenPdf::30                      0                       # What write queue length does an incoming req see
system.mem_ctrls.wrQLenPdf::31                      0                       # What write queue length does an incoming req see
system.mem_ctrls.wrQLenPdf::32                      0                       # What write queue length does an incoming req see
system.mem_ctrls.wrQLenPdf::33                      0                       # What write queue length does an incoming req see
system.mem_ctrls.wrQLenPdf::34                      0                       # What write queue length does an incoming req see
system.mem_ctrls.wrQLenPdf::35                      0                       # What write queue length does an incoming req see
system.mem_ctrls.wrQLenPdf::36                      0                       # What write queue length does an incoming req see
system.mem_ctrls.wrQLenPdf::37                      0                       # What write queue length does an incoming req see
system.mem_ctrls.wrQLenPdf::38                      0                       # What write queue length does an incoming req see
system.mem_ctrls.wrQLenPdf::39                      0                       # What write queue length does an incoming req see
system.mem_ctrls.wrQLenPdf::40                      0                       # What write queue length does an incoming req see
system.mem_ctrls.wrQLenPdf::41                      0                       # What write queue length does an incoming req see
system.mem_ctrls.wrQLenPdf::42                      0                       # What write queue length does an incoming req see
system.mem_ctrls.wrQLenPdf::43                      0                       # What write queue length does an incoming req see
system.mem_ctrls.wrQLenPdf::44                      0                       # What write queue length does an incoming req see
system.mem_ctrls.wrQLenPdf::45                      0                       # What write queue length does an incoming req see
system.mem_ctrls.wrQLenPdf::46                      0                       # What write queue length does an incoming req see
system.mem_ctrls.wrQLenPdf::47                      0                       # What write queue length does an incoming req see
system.mem_ctrls.wrQLenPdf::48                      0                       # What write queue length does an incoming req see
system.mem_ctrls.wrQLenPdf::49                      0                       # What write queue length does an incoming req see
system.mem_ctrls.wrQLenPdf::50                      0                       # What write queue length does an incoming req see
system.mem_ctrls.wrQLenPdf::51                      0                       # What write queue length does an incoming req see
system.mem_ctrls.wrQLenPdf::52                      0                       # What write queue length does an incoming req see
system.mem_ctrls.wrQLenPdf::53                      0                       # What write queue length does an incoming req see
system.mem_ctrls.wrQLenPdf::54                      0                       # What write queue length does an incoming req see
system.mem_ctrls.wrQLenPdf::55                      0                       # What write queue length does an incoming req see
system.mem_ctrls.wrQLenPdf::56                      0                       # What write queue length does an incoming req see
system.mem_ctrls.wrQLenPdf::57                      0                       # What write queue length does an incoming req see
system.mem_ctrls.wrQLenPdf::58                      0                       # What write queue length does an incoming req see
system.mem_ctrls.wrQLenPdf::59                      0                       # What write queue length does an incoming req see
system.mem_ctrls.wrQLenPdf::60                      0                       # What write queue length does an incoming req see
system.mem_ctrls.wrQLenPdf::61                      0                       # What write queue length does an incoming req see
system.mem_ctrls.wrQLenPdf::62                      0                       # What write queue length does an incoming req see
system.mem_ctrls.wrQLenPdf::63                      0                       # What write queue length does an incoming req see
system.mem_ctrls.bytesPerActivate::samples         1083                       # Bytes accessed per row activation
system.mem_ctrls.bytesPerActivate::mean    348.188366                       # Bytes accessed per row activation
system.mem_ctrls.bytesPerActivate::gmean   256.991911                       # Bytes accessed per row activation
system.mem_ctrls.bytesPerActivate::stdev   305.764908                       # Bytes accessed per row activation
system.mem_ctrls.bytesPerActivate::128-255          445     41.09%     41.09% # Bytes accessed per row activation
system.mem_ctrls.bytesPerActivate::256-383          338     31.21%     72.30% # Bytes accessed per row activation
system.mem_ctrls.bytesPerActivate::384-511           57      5.26%     77.56% # Bytes accessed per row activation
system.mem_ctrls.bytesPerActivate::512-639           42      3.88%     81.44% # Bytes accessed per row activation
system.mem_ctrls.bytesPerActivate::640-767           22      2.03%     83.47% # Bytes accessed per row activation
system.mem_ctrls.bytesPerActivate::768-895           20      1.85%     85.32% # Bytes accessed per row activation
system.mem_ctrls.bytesPerActivate::896-1023           16      1.48%     86.80% # Bytes accessed per row activation
system.mem_ctrls.bytesPerActivate::1024-1151          143     13.20%    100.00% # Bytes accessed per row activation
system.mem_ctrls.bytesPerActivate::total         1083                       # Bytes accessed per row activation
system.mem_ctrls.bytesReadDRAM                 377088                       # Total number of bytes read from DRAM
system.mem_ctrls.bytesReadWrQ                       0                       # Total number of bytes read from write queue
system.mem_ctrls.bytesWritten                       0                       # Total number of bytes written to DRAM
system.mem_ctrls.bytesReadSys                  377088                       # Total read bytes from the system interface side
system.mem_ctrls.bytesWrittenSys                    0                       # Total written bytes from the system interface side
system.mem_ctrls.avgRdBW                         6.39                       # Average DRAM read bandwidth in MiByte/s
system.mem_ctrls.avgWrBW                         0.00                       # Average achieved write bandwidth in MiByte/s
system.mem_ctrls.avgRdBWSys                      6.39                       # Average system read bandwidth in MiByte/s
system.mem_ctrls.avgWrBWSys                      0.00                       # Average system write bandwidth in MiByte/s
system.mem_ctrls.peakBW                      12800.00                       # Theoretical peak bandwidth in MiByte/s
system.mem_ctrls.busUtil                         0.05                       # Data bus utilization in percentage
system.mem_ctrls.busUtilRead                     0.05                       # Data bus utilization in percentage for reads
system.mem_ctrls.busUtilWrite                    0.00                       # Data bus utilization in percentage for writes
system.mem_ctrls.totGap                    7966715500                       # Total gap between requests
system.mem_ctrls.avgGap                    2704248.30                       # Average gap between requests
system.mem_ctrls.masterReadBytes::.cpu.inst       102144                       # Per-master bytes read from memory
system.mem_ctrls.masterReadBytes::.cpu.data       274944                       # Per-master bytes read from memory
system.mem_ctrls.masterReadRate::.cpu.inst 1732062.156213051872                       # Per-master bytes read from memory rate (Bytes/sec)
system.mem_ctrls.masterReadRate::.cpu.data 4662242.495671221986                       # Per-master bytes read from memory rate (Bytes/sec)
system.mem_ctrls.masterReadAccesses::.cpu.inst         1596                       # Per-master read serviced memory accesses
system.mem_ctrls.masterReadAccesses::.cpu.data         4296                       # Per-master read serviced memory accesses
system.mem_ctrls.masterReadTotalLat::.cpu.inst     46439000                       # Per-master read total memory access latency
system.mem_ctrls.masterReadTotalLat::.cpu.data    139622000                       # Per-master read total memory access latency
system.mem_ctrls.masterReadAvgLat::.cpu.inst     29097.12                       # Per-master read average memory access latency
system.mem_ctrls.masterReadAvgLat::.cpu.data     32500.47                       # Per-master read average memory access latency
system.mem_ctrls.pageHitRate                    81.62                       # Row buffer hit rate, read and write combined
system.mem_ctrls.rank1.actEnergy              3755640                       # Energy for activate commands per rank (pJ)
system.mem_ctrls.rank1.preEnergy              1996170                       # Energy for precharge commands per rank (pJ)
[...]
system.cpu.icache.ReadReq_miss_rate::total     0.000056                       # miss rate for ReadReq accesses
system.cpu.icache.ReadReq_avg_miss_latency::.cpu.inst 80619.577960                       # average ReadReq miss latency
system.cpu.icache.ReadReq_avg_miss_latency::total 80619.577960                       # average ReadReq miss latency
system.cpu.icache.ReadReq_mshr_misses::.cpu.inst          853                       # number of ReadReq MSHR misses
system.cpu.icache.ReadReq_mshr_misses::total          853                       # number of ReadReq MSHR misses
system.cpu.icache.ReadReq_mshr_miss_latency::.cpu.inst     67915500                       # number of ReadReq MSHR miss cycles
system.cpu.icache.ReadReq_mshr_miss_latency::total     67915500                       # number of ReadReq MSHR miss cycles
system.cpu.icache.ReadReq_mshr_miss_rate::.cpu.inst     0.000056                       # mshr miss rate for ReadReq accesses
system.cpu.icache.ReadReq_mshr_miss_rate::total     0.000056                       # mshr miss rate for ReadReq accesses
system.cpu.icache.ReadReq_avg_mshr_miss_latency::.cpu.inst 79619.577960                       # average ReadReq mshr miss latency
system.cpu.icache.ReadReq_avg_mshr_miss_latency::total 79619.577960                       # average ReadReq mshr miss latency
system.cpu.icache.tags.pwrStateResidencyTicks::UNDEFINED  58972479500                       # Cumulative time (in ticks) in various power states
system.cpu.icache.tags.tagsinuse           789.853070                       # Cycle average of tags in use
system.cpu.icache.tags.total_refs            15212938                       # Total number of references to valid blocks.
system.cpu.icache.tags.sampled_refs               853                       # Sample count of references to valid blocks.
system.cpu.icache.tags.avg_refs          17834.628370                       # Average number of references to valid blocks.
system.cpu.icache.tags.warmup_cycle             92500                       # Cycle when the warmup percentage was hit.
system.cpu.icache.tags.occ_blocks::.cpu.inst   789.853070                       # Average occupied blocks per requestor
system.cpu.icache.tags.occ_percent::.cpu.inst     0.771341                       # Average percentage of cache occupancy
system.cpu.icache.tags.occ_percent::total     0.771341                       # Average percentage of cache occupancy
system.cpu.icache.tags.occ_task_id_blocks::1024          792                       # Occupied blocks per task id
system.cpu.icache.tags.age_task_id_blocks_1024::4          792                       # Occupied blocks per task id
system.cpu.icache.tags.occ_task_id_percent::1024     0.773438                       # Percentage of cache occupancy per task id
system.cpu.icache.tags.tag_accesses         121704357                       # Number of tag accesses
system.cpu.icache.tags.data_accesses        121704357                       # Number of data accesses
system.cpu.dtb.walker.pwrStateResidencyTicks::UNDEFINED  58972479500                       # Cumulative time (in ticks) in various power states
system.cpu.dtb.stage2_mmu.stage2_tlb.walker.pwrStateResidencyTicks::UNDEFINED  58972479500                       # Cumulative time (in ticks) in various power states
system.cpu.dcache.pwrStateResidencyTicks::UNDEFINED  58972479500                       # Cumulative time (in ticks) in various power states
system.cpu.dcache.demand_hits::.cpu.data     43890931                       # number of demand (read+write) hits
system.cpu.dcache.demand_hits::total         43890931                       # number of demand (read+write) hits
system.cpu.dcache.overall_hits::.cpu.data     43899575                       # number of overall hits
system.cpu.dcache.overall_hits::total        43899575                       # number of overall hits
system.cpu.dcache.demand_misses::.cpu.data        13147                       # number of demand (read+write) misses
system.cpu.dcache.demand_misses::total          13147                       # number of demand (read+write) misses
system.cpu.dcache.overall_misses::.cpu.data        13217                       # number of overall misses
system.cpu.dcache.overall_misses::total         13217                       # number of overall misses
system.cpu.dcache.demand_miss_latency::.cpu.data    424843500                       # number of demand (read+write) miss cycles
system.cpu.dcache.demand_miss_latency::total    424843500                       # number of demand (read+write) miss cycles
system.cpu.dcache.overall_miss_latency::.cpu.data    424843500                       # number of overall miss cycles
system.cpu.dcache.overall_miss_latency::total    424843500                       # number of overall miss cycles
system.cpu.dcache.demand_accesses::.cpu.data     43904078                       # number of demand (read+write) accesses
system.cpu.dcache.demand_accesses::total     43904078                       # number of demand (read+write) accesses
system.cpu.dcache.overall_accesses::.cpu.data     43912792                       # number of overall (read+write) accesses
system.cpu.dcache.overall_accesses::total     43912792                       # number of overall (read+write) accesses
system.cpu.dcache.demand_miss_rate::.cpu.data     0.000299                       # miss rate for demand accesses
system.cpu.dcache.demand_miss_rate::total     0.000299                       # miss rate for demand accesses
system.cpu.dcache.overall_miss_rate::.cpu.data     0.000301                       # miss rate for overall accesses
system.cpu.dcache.overall_miss_rate::total     0.000301                       # miss rate for overall accesses
system.cpu.dcache.demand_avg_miss_latency::.cpu.data 32314.862706                       # average overall miss latency
system.cpu.dcache.demand_avg_miss_latency::total 32314.862706                       # average overall miss latency
system.cpu.dcache.overall_avg_miss_latency::.cpu.data 32143.716426                       # average overall miss latency
system.cpu.dcache.overall_avg_miss_latency::total 32143.716426                       # average overall miss latency
system.cpu.dcache.blocked_cycles::no_mshrs            0                       # number of cycles access was blocked
system.cpu.dcache.blocked_cycles::no_targets            0                       # number of cycles access was blocked
system.cpu.dcache.blocked::no_mshrs                 0                       # number of cycles access was blocked
system.cpu.dcache.blocked::no_targets               0                       # number of cycles access was blocked
system.cpu.dcache.avg_blocked_cycles::no_mshrs          nan                       # average number of cycles each access was blocked
system.cpu.dcache.avg_blocked_cycles::no_targets          nan                       # average number of cycles each access was blocked
system.cpu.dcache.writebacks::.writebacks         9267                       # number of writebacks
system.cpu.dcache.writebacks::total              9267                       # number of writebacks
system.cpu.dcache.demand_mshr_hits::.cpu.data         2307                       # number of demand (read+write) MSHR hits
system.cpu.dcache.demand_mshr_hits::total         2307                       # number of demand (read+write) MSHR hits
system.cpu.dcache.overall_mshr_hits::.cpu.data         2307                       # number of overall MSHR hits
system.cpu.dcache.overall_mshr_hits::total         2307                       # number of overall MSHR hits
system.cpu.dcache.demand_mshr_misses::.cpu.data        10840                       # number of demand (read+write) MSHR misses
system.cpu.dcache.demand_mshr_misses::total        10840                       # number of demand (read+write) MSHR misses
system.cpu.dcache.overall_mshr_misses::.cpu.data        10886                       # number of overall MSHR misses
system.cpu.dcache.overall_mshr_misses::total        10886                       # number of overall MSHR misses
system.cpu.dcache.demand_mshr_miss_latency::.cpu.data    289281000                       # number of demand (read+write) MSHR miss cycles
system.cpu.dcache.demand_mshr_miss_latency::total    289281000                       # number of demand (read+write) MSHR miss cycles
system.cpu.dcache.overall_mshr_miss_latency::.cpu.data    293834500                       # number of overall MSHR miss cycles
system.cpu.dcache.overall_mshr_miss_latency::total    293834500                       # number of overall MSHR miss cycles
system.cpu.dcache.demand_mshr_miss_rate::.cpu.data     0.000247                       # mshr miss rate for demand accesses
system.cpu.dcache.demand_mshr_miss_rate::total     0.000247                       # mshr miss rate for demand accesses
system.cpu.dcache.overall_mshr_miss_rate::.cpu.data     0.000248                       # mshr miss rate for overall accesses
system.cpu.dcache.overall_mshr_miss_rate::total     0.000248                       # mshr miss rate for overall accesses
system.cpu.dcache.demand_avg_mshr_miss_latency::.cpu.data 26686.439114                       # average overall mshr miss latency
system.cpu.dcache.demand_avg_mshr_miss_latency::total 26686.439114                       # average overall mshr miss latency
system.cpu.dcache.overall_avg_mshr_miss_latency::.cpu.data 26991.962153                       # average overall mshr miss latency
system.cpu.dcache.overall_avg_mshr_miss_latency::total 26991.962153                       # average overall mshr miss latency
system.cpu.dcache.replacements                   9862                       # number of replacements
system.cpu.dcache.ReadReq_hits::.cpu.data     37580926                       # number of ReadReq hits
system.cpu.dcache.ReadReq_hits::total        37580926                       # number of ReadReq hits
system.cpu.dcache.ReadReq_misses::.cpu.data         2336                       # number of ReadReq misses
system.cpu.dcache.ReadReq_misses::total          2336                       # number of ReadReq misses
system.cpu.dcache.ReadReq_miss_latency::.cpu.data     54206000                       # number of ReadReq miss cycles
system.cpu.dcache.ReadReq_miss_latency::total     54206000                       # number of ReadReq miss cycles
system.cpu.dcache.ReadReq_accesses::.cpu.data     37583262                       # number of ReadReq accesses(hits+misses)
system.cpu.dcache.ReadReq_accesses::total     37583262                       # number of ReadReq accesses(hits+misses)
system.cpu.dcache.ReadReq_miss_rate::.cpu.data     0.000062                       # miss rate for ReadReq accesses
system.cpu.dcache.ReadReq_miss_rate::total     0.000062                       # miss rate for ReadReq accesses
system.cpu.dcache.ReadReq_avg_miss_latency::.cpu.data 23204.623288                       # average ReadReq miss latency
system.cpu.dcache.ReadReq_avg_miss_latency::total 23204.623288                       # average ReadReq miss latency
system.cpu.dcache.ReadReq_mshr_hits::.cpu.data           39                       # number of ReadReq MSHR hits
system.cpu.dcache.ReadReq_mshr_hits::total           39                       # number of ReadReq MSHR hits
system.cpu.dcache.ReadReq_mshr_misses::.cpu.data         2297                       # number of ReadReq MSHR misses
system.cpu.dcache.ReadReq_mshr_misses::total         2297                       # number of ReadReq MSHR misses
system.cpu.dcache.ReadReq_mshr_miss_latency::.cpu.data     49308500                       # number of ReadReq MSHR miss cycles
system.cpu.dcache.ReadReq_mshr_miss_latency::total     49308500                       # number of ReadReq MSHR miss cycles
system.cpu.dcache.ReadReq_mshr_miss_rate::.cpu.data     0.000061                       # mshr miss rate for ReadReq accesses
system.cpu.dcache.ReadReq_mshr_miss_rate::total     0.000061                       # mshr miss rate for ReadReq accesses
system.cpu.dcache.ReadReq_avg_mshr_miss_latency::.cpu.data 21466.478015                       # average ReadReq mshr miss latency
system.cpu.dcache.ReadReq_avg_mshr_miss_latency::total 21466.478015                       # average ReadReq mshr miss latency
system.cpu.dcache.WriteReq_hits::.cpu.data      6310005                       # number of WriteReq hits
system.cpu.dcache.WriteReq_hits::total        6310005                       # number of WriteReq hits
system.cpu.dcache.WriteReq_misses::.cpu.data        10811                       # number of WriteReq misses
system.cpu.dcache.WriteReq_misses::total        10811                       # number of WriteReq misses
system.cpu.dcache.WriteReq_miss_latency::.cpu.data    370637500                       # number of WriteReq miss cycles
system.cpu.dcache.WriteReq_miss_latency::total    370637500                       # number of WriteReq miss cycles
system.cpu.dcache.WriteReq_accesses::.cpu.data      6320816                       # number of WriteReq accesses(hits+misses)
system.cpu.dcache.WriteReq_accesses::total      6320816                       # number of WriteReq accesses(hits+misses)
system.cpu.dcache.WriteReq_miss_rate::.cpu.data     0.001710                       # miss rate for WriteReq accesses
system.cpu.dcache.WriteReq_miss_rate::total     0.001710                       # miss rate for WriteReq accesses
system.cpu.dcache.WriteReq_avg_miss_latency::.cpu.data 34283.368791                       # average WriteReq miss latency
system.cpu.dcache.WriteReq_avg_miss_latency::total 34283.368791                       # average WriteReq miss latency
system.cpu.dcache.WriteReq_mshr_hits::.cpu.data         2268                       # number of WriteReq MSHR hits
system.cpu.dcache.WriteReq_mshr_hits::total         2268                       # number of WriteReq MSHR hits
system.cpu.dcache.WriteReq_mshr_misses::.cpu.data         8543                       # number of WriteReq MSHR misses
system.cpu.dcache.WriteReq_mshr_misses::total         8543                       # number of WriteReq MSHR misses
system.cpu.dcache.WriteReq_mshr_miss_latency::.cpu.data    239972500                       # number of WriteReq MSHR miss cycles
system.cpu.dcache.WriteReq_mshr_miss_latency::total    239972500                       # number of WriteReq MSHR miss cycles
system.cpu.dcache.WriteReq_mshr_miss_rate::.cpu.data     0.001352                       # mshr miss rate for WriteReq accesses
system.cpu.dcache.WriteReq_mshr_miss_rate::total     0.001352                       # mshr miss rate for WriteReq accesses
system.cpu.dcache.WriteReq_avg_mshr_miss_latency::.cpu.data 28089.956690                       # average WriteReq mshr miss latency
system.cpu.dcache.WriteReq_avg_mshr_miss_latency::total 28089.956690                       # average WriteReq mshr miss latency
system.cpu.dcache.SoftPFReq_hits::.cpu.data         8644                       # number of SoftPFReq hits
system.cpu.dcache.SoftPFReq_hits::total          8644                       # number of SoftPFReq hits
system.cpu.dcache.SoftPFReq_misses::.cpu.data           70                       # number of SoftPFReq misses
system.cpu.dcache.SoftPFReq_misses::total           70                       # number of SoftPFReq misses
system.cpu.dcache.SoftPFReq_accesses::.cpu.data         8714                       # number of SoftPFReq accesses(hits+misses)
system.cpu.dcache.SoftPFReq_accesses::total         8714                       # number of SoftPFReq accesses(hits+misses)
system.cpu.dcache.SoftPFReq_miss_rate::.cpu.data     0.008033                       # miss rate for SoftPFReq accesses
system.cpu.dcache.SoftPFReq_miss_rate::total     0.008033                       # miss rate for SoftPFReq accesses
system.cpu.dcache.SoftPFReq_mshr_misses::.cpu.data           46                       # number of SoftPFReq MSHR misses
system.cpu.dcache.SoftPFReq_mshr_misses::total           46                       # number of SoftPFReq MSHR misses
system.cpu.dcache.SoftPFReq_mshr_miss_latency::.cpu.data      4553500                       # number of SoftPFReq MSHR miss cycles
system.cpu.dcache.SoftPFReq_mshr_miss_latency::total      4553500                       # number of SoftPFReq MSHR miss cycles
system.cpu.dcache.SoftPFReq_mshr_miss_rate::.cpu.data     0.005279                       # mshr miss rate for SoftPFReq accesses
system.cpu.dcache.SoftPFReq_mshr_miss_rate::total     0.005279                       # mshr miss rate for SoftPFReq accesses
system.cpu.dcache.SoftPFReq_avg_mshr_miss_latency::.cpu.data 98989.130435                       # average SoftPFReq mshr miss latency
system.cpu.dcache.SoftPFReq_avg_mshr_miss_latency::total 98989.130435                       # average SoftPFReq mshr miss latency
system.cpu.dcache.LoadLockedReq_hits::.cpu.data          166                       # number of LoadLockedReq hits
system.cpu.dcache.LoadLockedReq_hits::total          166                       # number of LoadLockedReq hits
system.cpu.dcache.LoadLockedReq_accesses::.cpu.data          166                       # number of LoadLockedReq accesses(hits+misses)
system.cpu.dcache.LoadLockedReq_accesses::total          166                       # number of LoadLockedReq accesses(hits+misses)
system.cpu.dcache.StoreCondReq_hits::.cpu.data          166                       # number of StoreCondReq hits
system.cpu.dcache.StoreCondReq_hits::total          166                       # number of StoreCondReq hits
system.cpu.dcache.StoreCondReq_accesses::.cpu.data          166                       # number of StoreCondReq accesses(hits+misses)
system.cpu.dcache.StoreCondReq_accesses::total          166                       # number of StoreCondReq accesses(hits+misses)
system.cpu.dcache.tags.pwrStateResidencyTicks::UNDEFINED  58972479500                       # Cumulative time (in ticks) in various power states
system.cpu.dcache.tags.tagsinuse          1009.065890                       # Cycle average of tags in use
system.cpu.dcache.tags.total_refs            43910793                       # Total number of references to valid blocks.
system.cpu.dcache.tags.sampled_refs             10886                       # Sample count of references to valid blocks.
system.cpu.dcache.tags.avg_refs           4033.694011                       # Average number of references to valid blocks.
system.cpu.dcache.tags.warmup_cycle            186500                       # Cycle when the warmup percentage was hit.
system.cpu.dcache.tags.occ_blocks::.cpu.data  1009.065890                       # Average occupied blocks per requestor
system.cpu.dcache.tags.occ_percent::.cpu.data     0.985416                       # Average percentage of cache occupancy
system.cpu.dcache.tags.occ_percent::total     0.985416                       # Average percentage of cache occupancy
system.cpu.dcache.tags.occ_task_id_blocks::1024         1024                       # Occupied blocks per task id
system.cpu.dcache.tags.age_task_id_blocks_1024::2          327                       # Occupied blocks per task id
system.cpu.dcache.tags.age_task_id_blocks_1024::3          403                       # Occupied blocks per task id
system.cpu.dcache.tags.age_task_id_blocks_1024::4          294                       # Occupied blocks per task id
system.cpu.dcache.tags.occ_task_id_percent::1024            1                       # Percentage of cache occupancy per task id
system.cpu.dcache.tags.tag_accesses         351315878                       # Number of tag accesses
system.cpu.dcache.tags.data_accesses        351315878                       # Number of data accesses
system.cpu.itb.walker.pwrStateResidencyTicks::UNDEFINED  58972479500                       # Cumulative time (in ticks) in various power states
system.cpu.itb.stage2_mmu.stage2_tlb.walker.pwrStateResidencyTicks::UNDEFINED  58972479500                       # Cumulative time (in ticks) in various power states

---------- End Simulation Statistics   ----------
