
---------- Begin Simulation Statistics ----------
final_tick                                58163628500                       # Number of ticks from beginning of simulation (restored from checkpoints and never reset)
host_inst_rate                                 270007                       # Simulator instruction rate (inst/s)
host_mem_usage                                 683932                       # Number of bytes of host memory used
host_op_rate                                   295473                       # Simulator op (including micro ops) rate (op/s)
host_seconds                                   370.36                       # Real time elapsed on the host
host_tick_rate                              157045651                       # Simulator tick rate (ticks/s)
sim_freq                                 1000000000000                       # Frequency of simulated ticks
sim_insts                                   100000001                       # Number of instructions simulated
sim_ops                                     109431937                       # Number of ops (including micro ops) simulated
sim_seconds                                  0.058164                       # Number of seconds simulated
sim_ticks                                 58163628500                       # Number of ticks simulated
system.cpu.branchPred.BTBCorrect                    0                       # Number of correct BTB predictions (this stat may not work properly.
system.cpu.branchPred.BTBHitPct             87.596951                       # BTB Hit Percentage
system.cpu.branchPred.BTBHits                 8748050                       # Number of BTB hits
system.cpu.branchPred.BTBLookups              9986706                       # Number of BTB lookups
system.cpu.branchPred.RASInCorrect                348                       # Number of incorrect RAS predictions.
system.cpu.branchPred.condIncorrect            155024                       # Number of conditional branches incorrect
system.cpu.branchPred.condPredicted          16528182                       # Number of conditional branches predicted
system.cpu.branchPred.indirectHits             300026                       # Number of indirect target hits.
system.cpu.branchPred.indirectLookups          540254                       # Number of indirect predictor lookups.
system.cpu.branchPred.indirectMisses           240228                       # Number of indirect misses.
system.cpu.branchPred.lookups                20635611                       # Number of BP lookups
system.cpu.branchPred.usedRAS                 1050690                       # Number of times the RAS was used to get a target.
system.cpu.branchPredindirectMispredicted         1210                       # Number of mispredicted indirect branches.
system.cpu.committedInsts                   100000001                       # Number of instructions committed
system.cpu.committedOps                     109431937                       # Number of ops (including micro ops) committed
system.cpu.cpi                               1.163273                       # CPI: cycles per instruction
system.cpu.discardedOps                        732341                       # Number of ops (including micro ops) which were discarded before commit
system.cpu.dtb.accesses                             0                       # DTB accesses
system.cpu.dtb.align_faults                         0                       # Number of TLB faults due to alignment restrictions
system.cpu.dtb.domain_faults                        0                       # Number of TLB faults due to domain restrictions
system.cpu.dtb.flush_entries                        0                       # Number of entries that have been flushed from TLB
system.cpu.dtb.flush_tlb                            0                       # Number of times complete TLB was flushed
system.cpu.dtb.flush_tlb_asid                       0                       # Number of times TLB was flushed by ASID
system.cpu.dtb.flush_tlb_mva                        0                       # Number of times TLB was flushed by MVA
system.cpu.dtb.flush_tlb_mva_asid                   0                       # Number of times TLB was flushed by MVA & ASID
system.cpu.dtb.hits                                 0                       # DTB hits
system.cpu.dtb.inst_accesses                        0                       # ITB inst accesses
system.cpu.dtb.inst_hits                            0                       # ITB inst hits
system.cpu.dtb.inst_misses                          0                       # ITB inst misses
system.cpu.dtb.misses                               0                       # DTB misses
system.cpu.dtb.perms_faults                         0                       # Number of TLB faults due to permissions restrictions
system.cpu.dtb.prefetch_faults                      0                       # Number of TLB faults due to prefetch
system.cpu.dtb.read_accesses                        0                       # DTB read accesses
system.cpu.dtb.read_hits                            0                       # DTB read hits
system.cpu.dtb.read_misses                          0                       # DTB read misses
system.cpu.dtb.stage2_mmu.stage2_tlb.accesses            0                       # DTB accesses
system.cpu.dtb.stage2_mmu.stage2_tlb.align_faults            0                       # Number of TLB faults due to alignment restrictions
system.cpu.dtb.stage2_mmu.stage2_tlb.domain_faults            0                       # Number of TLB faults due to domain restrictions
system.cpu.dtb.stage2_mmu.stage2_tlb.flush_entries            0                       # Number of entries that have been flushed from TLB
system.cpu.dtb.stage2_mmu.stage2_tlb.flush_tlb            0                       # Number of times complete TLB was flushed
system.cpu.dtb.stage2_mmu.stage2_tlb.flush_tlb_asid            0                       # Number of times TLB was flushed by ASID
system.cpu.dtb.stage2_mmu.stage2_tlb.flush_tlb_mva            0                       # Number of times TLB was flushed by MVA
system.cpu.dtb.stage2_mmu.stage2_tlb.flush_tlb_mva_asid            0                       # Number of times TLB was flushed by MVA & ASID
system.cpu.dtb.stage2_mmu.stage2_tlb.hits            0                       # DTB hits
system.cpu.dtb.stage2_mmu.stage2_tlb.inst_accesses            0                       # ITB inst accesses
system.cpu.dtb.stage2_mmu.stage2_tlb.inst_hits            0                       # ITB inst hits
system.cpu.dtb.stage2_mmu.stage2_tlb.inst_misses            0                       # ITB inst misses
system.cpu.dtb.stage2_mmu.stage2_tlb.misses            0                       # DTB misses
system.cpu.dtb.stage2_mmu.stage2_tlb.perms_faults            0                       # Number of TLB faults due to permissions restrictions
system.cpu.dtb.stage2_mmu.stage2_tlb.prefetch_faults            0                       # Number of TLB faults due to prefetch
system.cpu.dtb.stage2_mmu.stage2_tlb.read_accesses            0                       # DTB read accesses
system.cpu.dtb.stage2_mmu.stage2_tlb.read_hits            0                       # DTB read hits
system.cpu.dtb.stage2_mmu.stage2_tlb.read_misses            0                       # DTB read misses
system.cpu.dtb.stage2_mmu.stage2_tlb.walker.walkRequestOrigin_Requested::Data            0                       # Table walker requests started/completed, data/inst
system.cpu.dtb.stage2_mmu.stage2_tlb.walker.walkRequestOrigin_Requested::Inst            0                       # Table walker requests started/completed, data/inst
system.cpu.dtb.stage2_mmu.stage2_tlb.walker.walkRequestOrigin_Requested::total            0                       # Table walker requests started/completed, data/inst
system.cpu.dtb.stage2_mmu.stage2_tlb.walker.walkRequestOrigin_Completed::Data            0                       # Table walker requests started/completed, data/inst
system.cpu.dtb.stage2_mmu.stage2_tlb.walker.walkRequestOrigin_Completed::Inst            0                       # Table walker requests started/completed, data/inst
system.cpu.dtb.stage2_mmu.stage2_tlb.walker.walkRequestOrigin_Completed::total            0                       # Table walker requests started/completed, data/inst
system.cpu.dtb.stage2_mmu.stage2_tlb.walker.walkRequestOrigin::total            0                       # Table walker requests started/completed, data/inst
system.cpu.dtb.stage2_mmu.stage2_tlb.walker.walks            0                       # Table walker walks requested
system.cpu.dtb.stage2_mmu.stage2_tlb.write_accesses            0                       # DTB write accesses
system.cpu.dtb.stage2_mmu.stage2_tlb.write_hits            0                       # DTB write hits
system.cpu.dtb.stage2_mmu.stage2_tlb.write_misses            0                       # DTB write misses
system.cpu.dtb.walker.walkRequestOrigin_Requested::Data            0                       # Table walker requests started/completed, data/inst
system.cpu.dtb.walker.walkRequestOrigin_Requested::Inst            0                       # Table walker requests started/completed, data/inst
system.cpu.dtb.walker.walkRequestOrigin_Requested::total            0                       # Table walker requests started/completed, data/inst
system.cpu.dtb.walker.walkRequestOrigin_Completed::Data            0                       # Table walker requests started/completed, data/inst
system.cpu.dtb.walker.walkRequestOrigin_Completed::Inst            0                       # Table walker requests started/completed, data/inst
system.cpu.dtb.walker.walkRequestOrigin_Completed::total            0                       # Table walker requests started/completed, data/inst
system.cpu.dtb.walker.walkRequestOrigin::total            0                       # Table walker requests started/completed, data/inst
system.cpu.dtb.walker.walks                         0                       # Table walker walks requested
system.cpu.dtb.write_accesses                       0                       # DTB write accesses
system.cpu.dtb.write_hits                           0                       # DTB write hits
system.cpu.dtb.write_misses                         0                       # DTB write misses
system.cpu.fetch2.amo_instructions                  0                       # Number of memory atomic instructions successfully decoded
system.cpu.fetch2.fp_instructions                   0                       # Number of floating point instructions successfully decoded
system.cpu.fetch2.int_instructions           49964496                       # Number of integer instructions successfully decoded
system.cpu.fetch2.load_instructions          17199261                       # Number of memory load instructions successfully decoded
system.cpu.fetch2.store_instructions         10036317                       # Number of memory store instructions successfully decoded
system.cpu.fetch2.vec_instructions                  0                       # Number of SIMD instructions successfully decoded
system.cpu.idleCycles                         4947858                       # Total number of cycles that the object has spent stopped
system.cpu.ipc                               0.859644                       # IPC: instructions per cycle
system.cpu.itb.accesses                             0                       # DTB accesses
system.cpu.itb.align_faults                         0                       # Number of TLB faults due to alignment restrictions
system.cpu.itb.domain_faults                        0                       # Number of TLB faults due to domain restrictions
system.cpu.itb.flush_entries                        0                       # Number of entries that have been flushed from TLB
system.cpu.itb.flush_tlb                            0                       # Number of times complete TLB was flushed
system.cpu.itb.flush_tlb_asid                       0                       # Number of times TLB was flushed by ASID
system.cpu.itb.flush_tlb_mva                        0                       # Number of times TLB was flushed by MVA
system.cpu.itb.flush_tlb_mva_asid                   0                       # Number of times TLB was flushed by MVA & ASID
system.cpu.itb.hits                                 0                       # DTB hits
system.cpu.itb.inst_accesses                        0                       # ITB inst accesses
system.cpu.itb.inst_hits                            0                       # ITB inst hits
system.cpu.itb.inst_misses                          0                       # ITB inst misses
system.cpu.itb.misses                               0                       # DTB misses
system.cpu.itb.perms_faults                         0                       # Number of TLB faults due to permissions restrictions
system.cpu.itb.prefetch_faults                      0                       # Number of TLB faults due to prefetch
system.cpu.itb.read_accesses                        0                       # DTB read accesses
system.cpu.itb.read_hits                            0                       # DTB read hits
system.cpu.itb.read_misses                          0                       # DTB read misses
system.cpu.itb.stage2_mmu.stage2_tlb.accesses            0                       # DTB accesses
system.cpu.itb.stage2_mmu.stage2_tlb.align_faults            0                       # Number of TLB faults due to alignment restrictions
system.cpu.itb.stage2_mmu.stage2_tlb.domain_faults            0                       # Number of TLB faults due to domain restrictions
system.cpu.itb.stage2_mmu.stage2_tlb.flush_entries            0                       # Number of entries that have been flushed from TLB
system.cpu.itb.stage2_mmu.stage2_tlb.flush_tlb            0                       # Number of times complete TLB was flushed
system.cpu.itb.stage2_mmu.stage2_tlb.flush_tlb_asid            0                       # Number of times TLB was flushed by ASID
system.cpu.itb.stage2_mmu.stage2_tlb.flush_tlb_mva            0                       # Number of times TLB was flushed by MVA
system.cpu.itb.stage2_mmu.stage2_tlb.flush_tlb_mva_asid            0                       # Number of times TLB was flushed by MVA & ASID
system.cpu.itb.stage2_mmu.stage2_tlb.hits            0                       # DTB hits
system.cpu.itb.stage2_mmu.stage2_tlb.inst_accesses            0                       # ITB inst accesses
system.cpu.itb.stage2_mmu.stage2_tlb.inst_hits            0                       # ITB inst hits
system.cpu.itb.stage2_mmu.stage2_tlb.inst_misses            0                       # ITB inst misses
system.cpu.itb.stage2_mmu.stage2_tlb.misses            0                       # DTB misses
system.cpu.itb.stage2_mmu.stage2_tlb.perms_faults            0                       # Number of TLB faults due to permissions restrictions
system.cpu.itb.stage2_mmu.stage2_tlb.prefetch_faults            0                       # Number of TLB faults due to prefetch
system.cpu.itb.stage2_mmu.stage2_tlb.read_accesses            0                       # DTB read accesses
system.cpu.itb.stage2_mmu.stage2_tlb.read_hits            0                       # DTB read hits
system.cpu.itb.stage2_mmu.stage2_tlb.read_misses            0                       # DTB read misses
system.cpu.itb.stage2_mmu.stage2_tlb.walker.walkRequestOrigin_Requested::Data            0                       # Table walker requests started/completed, data/inst
system.cpu.itb.stage2_mmu.stage2_tlb.walker.walkRequestOrigin_Requested::Inst            0                       # Table walker requests started/completed, data/inst
system.cpu.itb.stage2_mmu.stage2_tlb.walker.walkRequestOrigin_Requested::total            0                       # Table walker requests started/completed, data/inst
system.cpu.itb.stage2_mmu.stage2_tlb.walker.walkRequestOrigin_Completed::Data            0                       # Table walker requests started/completed, data/inst
system.cpu.itb.stage2_mmu.stage2_tlb.walker.walkRequestOrigin_Completed::Inst            0                       # Table walker requests started/completed, data/inst
system.cpu.itb.stage2_mmu.stage2_tlb.walker.walkRequestOrigin_Completed::total            0                       # Table walker requests started/completed, data/inst
system.cpu.itb.stage2_mmu.stage2_tlb.walker.walkRequestOrigin::total            0                       # Table walker requests started/completed, data/inst
system.cpu.itb.stage2_mmu.stage2_tlb.walker.walks            0                       # Table walker walks requested
system.cpu.itb.stage2_mmu.stage2_tlb.write_accesses            0                       # DTB write accesses
system.cpu.itb.stage2_mmu.stage2_tlb.write_hits            0                       # DTB write hits
system.cpu.itb.stage2_mmu.stage2_tlb.write_misses            0                       # DTB write misses
system.cpu.itb.walker.walkRequestOrigin_Requested::Data            0                       # Table walker requests started/completed, data/inst
system.cpu.itb.walker.walkRequestOrigin_Requested::Inst            0                       # Table walker requests started/completed, data/inst
system.cpu.itb.walker.walkRequestOrigin_Requested::total            0                       # Table walker requests started/completed, data/inst
system.cpu.itb.walker.walkRequestOrigin_Completed::Data            0                       # Table walker requests started/completed, data/inst
system.cpu.itb.walker.walkRequestOrigin_Completed::Inst            0                       # Table walker requests started/completed, data/inst
system.cpu.itb.walker.walkRequestOrigin_Completed::total            0                       # Table walker requests started/completed, data/inst
system.cpu.itb.walker.walkRequestOrigin::total            0                       # Table walker requests started/completed, data/inst
system.cpu.itb.walker.walks                         0                       # Table walker walks requested
system.cpu.itb.write_accesses                       0                       # DTB write accesses
system.cpu.itb.write_hits                           0                       # DTB write hits
system.cpu.itb.write_misses                         0                       # DTB write misses
system.cpu.numCycles                        116327257                       # number of cpu cycles simulated
system.cpu.numFetchSuspends                         0                       # Number of times Execute suspended instruction fetching
system.cpu.numWorkItemsCompleted                    0                       # number of work items this cpu completed
system.cpu.numWorkItemsStarted                      0                       # number of work items this cpu started
system.cpu.op_class_0::No_OpClass                   0      0.00%      0.00% # Class of committed instruction
system.cpu.op_class_0::IntAlu                72955303     66.67%     66.67% # Class of committed instruction
system.cpu.op_class_0::IntMult                 568365      0.52%     67.19% # Class of committed instruction
system.cpu.op_class_0::IntDiv                       0      0.00%     67.19% # Class of committed instruction
system.cpu.op_class_0::FloatAdd                     0      0.00%     67.19% # Class of committed instruction
system.cpu.op_class_0::FloatCmp                     0      0.00%     67.19% # Class of committed instruction
system.cpu.op_class_0::FloatCvt                     0      0.00%     67.19% # Class of committed instruction
system.cpu.op_class_0::FloatMult                    0      0.00%     67.19% # Class of committed instruction
system.cpu.op_class_0::FloatMultAcc                 0      0.00%     67.19% # Class of committed instruction
system.cpu.op_class_0::FloatDiv                     0      0.00%     67.19% # Class of committed instruction
system.cpu.op_class_0::FloatMisc                    0      0.00%     67.19% # Class of committed instruction
system.cpu.op_class_0::FloatSqrt                    0      0.00%     67.19% # Class of committed instruction
system.cpu.op_class_0::SimdAdd                 241252      0.22%     67.41% # Class of committed instruction
system.cpu.op_class_0::SimdAddAcc                   0      0.00%     67.41% # Class of committed instruction
system.cpu.op_class_0::SimdAlu                 154720      0.14%     67.55% # Class of committed instruction
system.cpu.op_class_0::SimdCmp                 120626      0.11%     67.66% # Class of committed instruction
system.cpu.op_class_0::SimdCvt                      0      0.00%     67.66% # Class of committed instruction
system.cpu.op_class_0::SimdMisc                 44544      0.04%     67.70% # Class of committed instruction
system.cpu.op_class_0::SimdMult                     0      0.00%     67.70% # Class of committed instruction
system.cpu.op_class_0::SimdMultAcc                  0      0.00%     67.70% # Class of committed instruction
system.cpu.op_class_0::SimdShift                    0      0.00%     67.70% # Class of committed instruction
system.cpu.op_class_0::SimdShiftAcc                 0      0.00%     67.70% # Class of committed instruction
system.cpu.op_class_0::SimdDiv                      0      0.00%     67.70% # Class of committed instruction
system.cpu.op_class_0::SimdSqrt                     0      0.00%     67.70% # Class of committed instruction
system.cpu.op_class_0::SimdFloatAdd                 0      0.00%     67.70% # Class of committed instruction
system.cpu.op_class_0::SimdFloatAlu                 0      0.00%     67.70% # Class of committed instruction
system.cpu.op_class_0::SimdFloatCmp                 0      0.00%     67.70% # Class of committed instruction
system.cpu.op_class_0::SimdFloatCvt                 0      0.00%     67.70% # Class of committed instruction
system.cpu.op_class_0::SimdFloatDiv                 0      0.00%     67.70% # Class of committed instruction
system.cpu.op_class_0::SimdFloatMisc           166465      0.15%     67.85% # Class of committed instruction
system.cpu.op_class_0::SimdFloatMult                0      0.00%     67.85% # Class of committed instruction
system.cpu.op_class_0::SimdFloatMultAcc             0      0.00%     67.85% # Class of committed instruction
system.cpu.op_class_0::SimdFloatSqrt                0      0.00%     67.85% # Class of committed instruction
system.cpu.op_class_0::SimdReduceAdd                0      0.00%     67.85% # Class of committed instruction
system.cpu.op_class_0::SimdReduceAlu                0      0.00%     67.85% # Class of committed instruction
system.cpu.op_class_0::SimdReduceCmp                0      0.00%     67.85% # Class of committed instruction
system.cpu.op_class_0::SimdFloatReduceAdd            0      0.00%     67.85% # Class of committed instruction
system.cpu.op_class_0::SimdFloatReduceCmp            0      0.00%     67.85% # Class of committed instruction
system.cpu.op_class_0::SimdAes                      0      0.00%     67.85% # Class of committed instruction
system.cpu.op_class_0::SimdAesMix                   0      0.00%     67.85% # Class of committed instruction
system.cpu.op_class_0::SimdSha1Hash                 0      0.00%     67.85% # Class of committed instruction
system.cpu.op_class_0::SimdSha1Hash2                0      0.00%     67.85% # Class of committed instruction
system.cpu.op_class_0::SimdSha256Hash               0      0.00%     67.85% # Class of committed instruction
system.cpu.op_class_0::SimdSha256Hash2              0      0.00%     67.85% # Class of committed instruction
system.cpu.op_class_0::SimdShaSigma2                0      0.00%     67.85% # Class of committed instruction
system.cpu.op_class_0::SimdShaSigma3                0      0.00%     67.85% # Class of committed instruction
system.cpu.op_class_0::SimdPredAlu                  0      0.00%     67.85% # Class of committed instruction
system.cpu.op_class_0::MemRead               20646465     18.87%     86.72% # Class of committed instruction
system.cpu.op_class_0::MemWrite              14534197     13.28%    100.00% # Class of committed instruction
system.cpu.op_class_0::FloatMemRead                 0      0.00%    100.00% # Class of committed instruction
system.cpu.op_class_0::FloatMemWrite                0      0.00%    100.00% # Class of committed instruction
system.cpu.op_class_0::IprAccess                    0      0.00%    100.00% # Class of committed instruction
system.cpu.op_class_0::InstPrefetch                 0      0.00%    100.00% # Class of committed instruction
system.cpu.op_class_0::total                109431937                       # Class of committed instruction
system.cpu.tickCycles                       111379399                       # Number of cycles that the object actually ticked
system.cpu.workload.numSyscalls                    86                       # Number of system calls
system.membus.snoop_filter.hit_multi_requests            0                       # Number of requests hitting in the snoop filter with multiple (>1) holders of the requested data.
system.membus.snoop_filter.hit_multi_snoops            0                       # Number of snoops hitting in the snoop filter with multiple (>1) holders of the requested data.
system.membus.snoop_filter.hit_single_requests        37163                       # Number of requests hitting in the snoop filter with a single holder of the requested data.
system.membus.snoop_filter.hit_single_snoops            0                       # Number of snoops hitting in the snoop filter with a single holder of the requested data.
system.membus.snoop_filter.tot_requests         83181                       # Total number of requests made to the snoop filter.
system.membus.snoop_filter.tot_snoops               0                       # Total number of snoops made to the snoop filter.
system.tol2bus.snoop_filter.hit_multi_requests           17                       # Number of requests hitting in the snoop filter with multiple (>1) holders of the requested data.
system.tol2bus.snoop_filter.hit_multi_snoops            4                       # Number of snoops hitting in the snoop filter with multiple (>1) holders of the requested data.
system.tol2bus.snoop_filter.hit_single_requests        47555                       # Number of requests hitting in the snoop filter with a single holder of the requested data.
system.tol2bus.snoop_filter.hit_single_snoops          727                       # Number of snoops hitting in the snoop filter with a single holder of the requested data.
system.tol2bus.snoop_filter.tot_requests        97663                       # Total number of requests made to the snoop filter.
system.tol2bus.snoop_filter.tot_snoops            731                       # Total number of snoops made to the snoop filter.
system.membus.pwrStateResidencyTicks::UNDEFINED  58163628500                       # Cumulative time (in ticks) in various power states
system.membus.trans_dist::ReadResp               7206                       # Transaction distribution
system.membus.trans_dist::WritebackDirty        37033                       # Transaction distribution
system.membus.trans_dist::CleanEvict              130                       # Transaction distribution
system.membus.trans_dist::ReadExReq             38812                       # Transaction distribution
system.membus.trans_dist::ReadExResp            38812                       # Transaction distribution
system.membus.trans_dist::ReadSharedReq          7206                       # Transaction distribution
system.membus.pkt_count_system.l2.mem_side::system.mem_ctrls.port       129199                       # Packet count per connected master and slave (bytes)
system.membus.pkt_count::total                 129199                       # Packet count per connected master and slave (bytes)
system.membus.pkt_size_system.l2.mem_side::system.mem_ctrls.port      5315264                       # Cumulative packet size per connected master and slave (bytes)
system.membus.pkt_size::total                 5315264                       # Cumulative packet size per connected master and slave (bytes)
system.membus.snoops                                0                       # Total snoops (count)
system.membus.snoopTraffic                          0                       # Total snoop traffic (bytes)
system.membus.snoop_fanout::samples             46018                       # Request fanout histogram
system.membus.snoop_fanout::mean                    0                       # Request fanout histogram
system.membus.snoop_fanout::stdev                   0                       # Request fanout histogram
system.membus.snoop_fanout::underflows              0      0.00%      0.00% # Request fanout histogram
system.membus.snoop_fanout::0                   46018    100.00%    100.00% # Request fanout histogram
system.membus.snoop_fanout::1                       0      0.00%    100.00% # Request fanout histogram
system.membus.snoop_fanout::overflows               0      0.00%    100.00% # Request fanout histogram
system.membus.snoop_fanout::min_value               0                       # Request fanout histogram
system.membus.snoop_fanout::max_value               0                       # Request fanout histogram
system.membus.snoop_fanout::total               46018                       # Request fanout histogram
system.membus.respLayer1.occupancy          246539250                       # Layer occupancy (ticks)
system.membus.respLayer1.utilization              0.4                       # Layer utilization (%)
system.membus.reqLayer0.occupancy           239724500                       # Layer occupancy (ticks)
system.membus.reqLayer0.utilization               0.4                       # Layer utilization (%)
system.tol2bus.pwrStateResidencyTicks::UNDEFINED  58163628500                       # Cumulative time (in ticks) in various power states
system.tol2bus.trans_dist::ReadResp             11300                       # Transaction distribution
system.tol2bus.trans_dist::WritebackDirty        83638                       # Transaction distribution
system.tol2bus.trans_dist::WritebackClean            5                       # Transaction distribution
system.tol2bus.trans_dist::CleanEvict            1739                       # Transaction distribution
system.tol2bus.trans_dist::ReadExReq            38812                       # Transaction distribution
system.tol2bus.trans_dist::ReadExResp           38812                       # Transaction distribution
system.tol2bus.trans_dist::ReadCleanReq           518                       # Transaction distribution
system.tol2bus.trans_dist::ReadSharedReq        10782                       # Transaction distribution
system.tol2bus.pkt_count_system.cpu.icache.mem_side::system.l2.cpu_side         1041                       # Packet count per connected master and slave (bytes)
system.tol2bus.pkt_count_system.cpu.dcache.mem_side::system.l2.cpu_side       146734                       # Packet count per connected master and slave (bytes)
system.tol2bus.pkt_count::total                147775                       # Packet count per connected master and slave (bytes)
system.tol2bus.pkt_size_system.cpu.icache.mem_side::system.l2.cpu_side        33472                       # Cumulative packet size per connected master and slave (bytes)
system.tol2bus.pkt_size_system.cpu.dcache.mem_side::system.l2.cpu_side      6156736                       # Cumulative packet size per connected master and slave (bytes)
system.tol2bus.pkt_size::total                6190208                       # Cumulative packet size per connected master and slave (bytes)
system.tol2bus.snoops                           37831                       # Total snoops (count)
system.tol2bus.snoopTraffic                   2370112                       # Total snoop traffic (bytes)
system.tol2bus.snoop_fanout::samples            87943                       # Request fanout histogram
system.tol2bus.snoop_fanout::mean            0.008596                       # Request fanout histogram
system.tol2bus.snoop_fanout::stdev           0.092810                       # Request fanout histogram
system.tol2bus.snoop_fanout::underflows             0      0.00%      0.00% # Request fanout histogram
system.tol2bus.snoop_fanout::0                  87191     99.14%     99.14% # Request fanout histogram
system.tol2bus.snoop_fanout::1                    748      0.85%    100.00% # Request fanout histogram
system.tol2bus.snoop_fanout::2                      4      0.00%    100.00% # Request fanout histogram
system.tol2bus.snoop_fanout::overflows              0      0.00%    100.00% # Request fanout histogram
system.tol2bus.snoop_fanout::min_value              0                       # Request fanout histogram
system.tol2bus.snoop_fanout::max_value              2                       # Request fanout histogram
system.tol2bus.snoop_fanout::total              87943                       # Request fanout histogram
system.tol2bus.reqLayer0.occupancy           95441500                       # Layer occupancy (ticks)
system.tol2bus.reqLayer0.utilization              0.2                       # Layer utilization (%)
system.tol2bus.respLayer1.occupancy          74393495                       # Layer occupancy (ticks)
system.tol2bus.respLayer1.utilization             0.1                       # Layer utilization (%)
system.tol2bus.respLayer0.occupancy            777499                       # Layer occupancy (ticks)
system.tol2bus.respLayer0.utilization             0.0                       # Layer utilization (%)
system.voltage_domain.voltage                       1                       # Voltage in Volts
system.clk_domain.clock                          1000                       # Clock period in ticks
system.l2.pwrStateResidencyTicks::UNDEFINED  58163628500                       # Cumulative time (in ticks) in various power states
system.l2.demand_hits::.cpu.inst                    6                       # number of demand (read+write) hits
system.l2.demand_hits::.cpu.data                 4082                       # number of demand (read+write) hits
system.l2.demand_hits::total                     4088                       # number of demand (read+write) hits
system.l2.overall_hits::.cpu.inst                   6                       # number of overall hits
system.l2.overall_hits::.cpu.data                4082                       # number of overall hits
system.l2.overall_hits::total                    4088                       # number of overall hits
system.l2.demand_misses::.cpu.inst                512                       # number of demand (read+write) misses
system.l2.demand_misses::.cpu.data              45512                       # number of demand (read+write) misses
system.l2.demand_misses::total                  46024                       # number of demand (read+write) misses
system.l2.overall_misses::.cpu.inst               512                       # number of overall misses
system.l2.overall_misses::.cpu.data             45512                       # number of overall misses
system.l2.overall_misses::total                 46024                       # number of overall misses
system.l2.demand_miss_latency::.cpu.inst     39198000                       # number of demand (read+write) miss cycles
system.l2.demand_miss_latency::.cpu.data   3700401500                       # number of demand (read+write) miss cycles
system.l2.demand_miss_latency::total       3739599500                       # number of demand (read+write) miss cycles
system.l2.overall_miss_latency::.cpu.inst     39198000                       # number of overall miss cycles
system.l2.overall_miss_latency::.cpu.data   3700401500                       # number of overall miss cycles
system.l2.overall_miss_latency::total      3739599500                       # number of overall miss cycles
system.l2.demand_accesses::.cpu.inst              518                       # number of demand (read+write) accesses
system.l2.demand_accesses::.cpu.data            49594                       # number of demand (read+write) accesses
system.l2.demand_accesses::total                50112                       # number of demand (read+write) accesses
system.l2.overall_accesses::.cpu.inst             518                       # number of overall (read+write) accesses
system.l2.overall_accesses::.cpu.data           49594                       # number of overall (read+write) accesses
system.l2.overall_accesses::total               50112                       # number of overall (read+write) accesses
system.l2.demand_miss_rate::.cpu.inst        0.988417                       # miss rate for demand accesses
system.l2.demand_miss_rate::.cpu.data        0.917692                       # miss rate for demand accesses
system.l2.demand_miss_rate::total            0.918423                       # miss rate for demand accesses
system.l2.overall_miss_rate::.cpu.inst       0.988417                       # miss rate for overall accesses
system.l2.overall_miss_rate::.cpu.data       0.917692                       # miss rate for overall accesses
system.l2.overall_miss_rate::total           0.918423                       # miss rate for overall accesses
system.l2.demand_avg_miss_latency::.cpu.inst 76558.593750                       # average overall miss latency
system.l2.demand_avg_miss_latency::.cpu.data 81306.062137                       # average overall miss latency
system.l2.demand_avg_miss_latency::total 81253.248305                       # average overall miss latency
system.l2.overall_avg_miss_latency::.cpu.inst 76558.593750                       # average overall miss latency
system.l2.overall_avg_miss_latency::.cpu.data 81306.062137                       # average overall miss latency
system.l2.overall_avg_miss_latency::total 81253.248305                       # average overall miss latency
system.l2.blocked_cycles::no_mshrs                  0                       # number of cycles access was blocked
system.l2.blocked_cycles::no_targets                0                       # number of cycles access was blocked
system.l2.blocked::no_mshrs                         0                       # number of cycles access was blocked
system.l2.blocked::no_targets                       0                       # number of cycles access was blocked
system.l2.avg_blocked_cycles::no_mshrs            nan                       # average number of cycles each access was blocked
system.l2.avg_blocked_cycles::no_targets          nan                       # average number of cycles each access was blocked
system.l2.writebacks::.writebacks               37033                       # number of writebacks
system.l2.writebacks::total                     37033                       # number of writebacks
system.l2.demand_mshr_hits::.cpu.inst               1                       # number of demand (read+write) MSHR hits
system.l2.demand_mshr_hits::.cpu.data               5                       # number of demand (read+write) MSHR hits
system.l2.demand_mshr_hits::total                   6                       # number of demand (read+write) MSHR hits
system.l2.overall_mshr_hits::.cpu.inst              1                       # number of overall MSHR hits
system.l2.overall_mshr_hits::.cpu.data              5                       # number of overall MSHR hits
system.l2.overall_mshr_hits::total                  6                       # number of overall MSHR hits
system.l2.demand_mshr_misses::.cpu.inst           511                       # number of demand (read+write) MSHR misses
system.l2.demand_mshr_misses::.cpu.data         45507                       # number of demand (read+write) MSHR misses
system.l2.demand_mshr_misses::total             46018                       # number of demand (read+write) MSHR misses
system.l2.overall_mshr_misses::.cpu.inst          511                       # number of overall MSHR misses
system.l2.overall_mshr_misses::.cpu.data        45507                       # number of overall MSHR misses
system.l2.overall_mshr_misses::total            46018                       # number of overall MSHR misses
system.l2.demand_mshr_miss_latency::.cpu.inst     34023500                       # number of demand (read+write) MSHR miss cycles
system.l2.demand_mshr_miss_latency::.cpu.data   3244990500                       # number of demand (read+write) MSHR miss cycles
system.l2.demand_mshr_miss_latency::total   3279014000                       # number of demand (read+write) MSHR miss cycles
system.l2.overall_mshr_miss_latency::.cpu.inst     34023500                       # number of overall MSHR miss cycles
system.l2.overall_mshr_miss_latency::.cpu.data   3244990500                       # number of overall MSHR miss cycles
system.l2.overall_mshr_miss_latency::total   3279014000                       # number of overall MSHR miss cycles
system.l2.demand_mshr_miss_rate::.cpu.inst     0.986486                       # mshr miss rate for demand accesses
system.l2.demand_mshr_miss_rate::.cpu.data     0.917591                       # mshr miss rate for demand accesses
system.l2.demand_mshr_miss_rate::total       0.918303                       # mshr miss rate for demand accesses
system.l2.overall_mshr_miss_rate::.cpu.inst     0.986486                       # mshr miss rate for overall accesses
system.l2.overall_mshr_miss_rate::.cpu.data     0.917591                       # mshr miss rate for overall accesses
system.l2.overall_mshr_miss_rate::total      0.918303                       # mshr miss rate for overall accesses
system.l2.demand_avg_mshr_miss_latency::.cpu.inst 66582.191781                       # average overall mshr miss latency
system.l2.demand_avg_mshr_miss_latency::.cpu.data 71307.502143                       # average overall mshr miss latency
system.l2.demand_avg_mshr_miss_latency::total 71255.030640                       # average overall mshr miss latency
system.l2.overall_avg_mshr_miss_latency::.cpu.inst 66582.191781                       # average overall mshr miss latency
system.l2.overall_avg_mshr_miss_latency::.cpu.data 71307.502143                       # average overall mshr miss latency
system.l2.overall_avg_mshr_miss_latency::total 71255.030640                       # average overall mshr miss latency
system.l2.replacements                          37831                       # number of replacements
system.l2.WritebackDirty_hits::.writebacks        46605                       # number of WritebackDirty hits
system.l2.WritebackDirty_hits::total            46605                       # number of WritebackDirty hits
system.l2.WritebackDirty_accesses::.writebacks        46605                       # number of WritebackDirty accesses(hits+misses)
system.l2.WritebackDirty_accesses::total        46605                       # number of WritebackDirty accesses(hits+misses)
system.l2.WritebackClean_hits::.writebacks            4                       # number of WritebackClean hits
system.l2.WritebackClean_hits::total                4                       # number of WritebackClean hits
system.l2.WritebackClean_accesses::.writebacks            4                       # number of WritebackClean accesses(hits+misses)
system.l2.WritebackClean_accesses::total            4                       # number of WritebackClean accesses(hits+misses)
system.l2.CleanEvict_mshr_misses::.writebacks           63                       # number of CleanEvict MSHR misses
system.l2.CleanEvict_mshr_misses::total            63                       # number of CleanEvict MSHR misses
system.l2.CleanEvict_mshr_miss_rate::.writebacks          inf                       # mshr miss rate for CleanEvict accesses
system.l2.CleanEvict_mshr_miss_rate::total          inf                       # mshr miss rate for CleanEvict accesses
system.l2.ReadExReq_misses::.cpu.data           38812                       # number of ReadExReq misses
system.l2.ReadExReq_misses::total               38812                       # number of ReadExReq misses
system.l2.ReadExReq_miss_latency::.cpu.data   3104601000                       # number of ReadExReq miss cycles
system.l2.ReadExReq_miss_latency::total    3104601000                       # number of ReadExReq miss cycles
system.l2.ReadExReq_accesses::.cpu.data         38812                       # number of ReadExReq accesses(hits+misses)
system.l2.ReadExReq_accesses::total             38812                       # number of ReadExReq accesses(hits+misses)
system.l2.ReadExReq_miss_rate::.cpu.data            1                       # miss rate for ReadExReq accesses
system.l2.ReadExReq_miss_rate::total                1                       # miss rate for ReadExReq accesses
system.l2.ReadExReq_avg_miss_latency::.cpu.data 79990.750283                       # average ReadExReq miss latency
system.l2.ReadExReq_avg_miss_latency::total 79990.750283                       # average ReadExReq miss latency
system.l2.ReadExReq_mshr_misses::.cpu.data        38812                       # number of ReadExReq MSHR misses
system.l2.ReadExReq_mshr_misses::total          38812                       # number of ReadExReq MSHR misses
system.l2.ReadExReq_mshr_miss_latency::.cpu.data   2716481000                       # number of ReadExReq MSHR miss cycles
system.l2.ReadExReq_mshr_miss_latency::total   2716481000                       # number of ReadExReq MSHR miss cycles
system.l2.ReadExReq_mshr_miss_rate::.cpu.data            1                       # mshr miss rate for ReadExReq accesses
system.l2.ReadExReq_mshr_miss_rate::total            1                       # mshr miss rate for ReadExReq accesses
system.l2.ReadExReq_avg_mshr_miss_latency::.cpu.data 69990.750283                       # average ReadExReq mshr miss latency
system.l2.ReadExReq_avg_mshr_miss_latency::total 69990.750283                       # average ReadExReq mshr miss latency
system.l2.ReadCleanReq_hits::.cpu.inst              6                       # number of ReadCleanReq hits
system.l2.ReadCleanReq_hits::total                  6                       # number of ReadCleanReq hits
system.l2.ReadCleanReq_misses::.cpu.inst          512                       # number of ReadCleanReq misses
system.l2.ReadCleanReq_misses::total              512                       # number of ReadCleanReq misses
system.l2.ReadCleanReq_miss_latency::.cpu.inst     39198000                       # number of ReadCleanReq miss cycles
system.l2.ReadCleanReq_miss_latency::total     39198000                       # number of ReadCleanReq miss cycles
system.l2.ReadCleanReq_accesses::.cpu.inst          518                       # number of ReadCleanReq accesses(hits+misses)
system.l2.ReadCleanReq_accesses::total            518                       # number of ReadCleanReq accesses(hits+misses)
system.l2.ReadCleanReq_miss_rate::.cpu.inst     0.988417                       # miss rate for ReadCleanReq accesses
system.l2.ReadCleanReq_miss_rate::total      0.988417                       # miss rate for ReadCleanReq accesses
system.l2.ReadCleanReq_avg_miss_latency::.cpu.inst 76558.593750                       # average ReadCleanReq miss latency
system.l2.ReadCleanReq_avg_miss_latency::total 76558.593750                       # average ReadCleanReq miss latency
system.l2.ReadCleanReq_mshr_hits::.cpu.inst            1                       # number of ReadCleanReq MSHR hits
system.l2.ReadCleanReq_mshr_hits::total             1                       # number of ReadCleanReq MSHR hits
system.l2.ReadCleanReq_mshr_misses::.cpu.inst          511                       # number of ReadCleanReq MSHR misses
system.l2.ReadCleanReq_mshr_misses::total          511                       # number of ReadCleanReq MSHR misses
system.l2.ReadCleanReq_mshr_miss_latency::.cpu.inst     34023500                       # number of ReadCleanReq MSHR miss cycles
system.l2.ReadCleanReq_mshr_miss_latency::total     34023500                       # number of ReadCleanReq MSHR miss cycles
system.l2.ReadCleanReq_mshr_miss_rate::.cpu.inst     0.986486                       # mshr miss rate for ReadCleanReq accesses
system.l2.ReadCleanReq_mshr_miss_rate::total     0.986486                       # mshr miss rate for ReadCleanReq accesses
system.l2.ReadCleanReq_avg_mshr_miss_latency::.cpu.inst 66582.191781                       # average ReadCleanReq mshr miss latency
system.l2.ReadCleanReq_avg_mshr_miss_latency::total 66582.191781                       # average ReadCleanReq mshr miss latency
system.l2.ReadSharedReq_hits::.cpu.data          4082                       # number of ReadSharedReq hits
system.l2.ReadSharedReq_hits::total              4082                       # number of ReadSharedReq hits
system.l2.ReadSharedReq_misses::.cpu.data         6700                       # number of ReadSharedReq misses
system.l2.ReadSharedReq_misses::total            6700                       # number of ReadSharedReq misses
system.l2.ReadSharedReq_miss_latency::.cpu.data    595800500                       # number of ReadSharedReq miss cycles
system.l2.ReadSharedReq_miss_latency::total    595800500                       # number of ReadSharedReq miss cycles
system.l2.ReadSharedReq_accesses::.cpu.data        10782                       # number of ReadSharedReq accesses(hits+misses)
system.l2.ReadSharedReq_accesses::total         10782                       # number of ReadSharedReq accesses(hits+misses)
system.l2.ReadSharedReq_miss_rate::.cpu.data     0.621406                       # miss rate for ReadSharedReq accesses
system.l2.ReadSharedReq_miss_rate::total     0.621406                       # miss rate for ReadSharedReq accesses
system.l2.ReadSharedReq_avg_miss_latency::.cpu.data 88925.447761                       # average ReadSharedReq miss latency
system.l2.ReadSharedReq_avg_miss_latency::total 88925.447761                       # average ReadSharedReq miss latency
system.l2.ReadSharedReq_mshr_hits::.cpu.data            5                       # number of ReadSharedReq MSHR hits
system.l2.ReadSharedReq_mshr_hits::total            5                       # number of ReadSharedReq MSHR hits
system.l2.ReadSharedReq_mshr_misses::.cpu.data         6695                       # number of ReadSharedReq MSHR misses
system.l2.ReadSharedReq_mshr_misses::total         6695                       # number of ReadSharedReq MSHR misses
system.l2.ReadSharedReq_mshr_miss_latency::.cpu.data    528509500                       # number of ReadSharedReq MSHR miss cycles
system.l2.ReadSharedReq_mshr_miss_latency::total    528509500                       # number of ReadSharedReq MSHR miss cycles
system.l2.ReadSharedReq_mshr_miss_rate::.cpu.data     0.620942                       # mshr miss rate for ReadSharedReq accesses
system.l2.ReadSharedReq_mshr_miss_rate::total     0.620942                       # mshr miss rate for ReadSharedReq accesses
system.l2.ReadSharedReq_avg_mshr_miss_latency::.cpu.data 78940.926064                       # average ReadSharedReq mshr miss latency
system.l2.ReadSharedReq_avg_mshr_miss_latency::total 78940.926064                       # average ReadSharedReq mshr miss latency
system.l2.tags.pwrStateResidencyTicks::UNDEFINED  58163628500                       # Cumulative time (in ticks) in various power states
system.l2.tags.tagsinuse                  7999.907323                       # Cycle average of tags in use
system.l2.tags.total_refs                       97577                       # Total number of references to valid blocks.
system.l2.tags.sampled_refs                     46023                       # Sample count of references to valid blocks.
system.l2.tags.avg_refs                      2.120179                       # Average number of references to valid blocks.
system.l2.tags.warmup_cycle                     77000                       # Cycle when the warmup percentage was hit.
system.l2.tags.occ_blocks::.writebacks       1.243152                       # Average occupied blocks per requestor
system.l2.tags.occ_blocks::.cpu.inst        26.505579                       # Average occupied blocks per requestor
system.l2.tags.occ_blocks::.cpu.data      7972.158592                       # Average occupied blocks per requestor
system.l2.tags.occ_percent::.writebacks      0.000152                       # Average percentage of cache occupancy
system.l2.tags.occ_percent::.cpu.inst        0.003236                       # Average percentage of cache occupancy
system.l2.tags.occ_percent::.cpu.data        0.973164                       # Average percentage of cache occupancy
system.l2.tags.occ_percent::total            0.976551                       # Average percentage of cache occupancy
system.l2.tags.occ_task_id_blocks::1024          8192                       # Occupied blocks per task id
system.l2.tags.age_task_id_blocks_1024::0            4                       # Occupied blocks per task id
system.l2.tags.age_task_id_blocks_1024::1           34                       # Occupied blocks per task id
system.l2.tags.age_task_id_blocks_1024::2          552                       # Occupied blocks per task id
system.l2.tags.age_task_id_blocks_1024::3         4659                       # Occupied blocks per task id
system.l2.tags.age_task_id_blocks_1024::4         2943                       # Occupied blocks per task id
system.l2.tags.occ_task_id_percent::1024            1                       # Percentage of cache occupancy per task id
system.l2.tags.tag_accesses                   1608359                       # Number of tag accesses
system.l2.tags.data_accesses                  1608359                       # Number of data accesses
system.cpu_voltage_domain.voltage                   1                       # Voltage in Volts
system.mem_ctrls.pwrStateResidencyTicks::UNDEFINED  58163628500                       # Cumulative time (in ticks) in various power states
system.mem_ctrls.bytes_read::.cpu.inst          32704                       # Number of bytes read from this memory
system.mem_ctrls.bytes_read::.cpu.data        2912448                       # Number of bytes read from this memory
system.mem_ctrls.bytes_read::total            2945152                       # Number of bytes read from this memory
system.mem_ctrls.bytes_inst_read::.cpu.inst        32704                       # Number of instructions bytes read from this memory
system.mem_ctrls.bytes_inst_read::total         32704                       # Number of instructions bytes read from this memory
system.mem_ctrls.bytes_written::.writebacks      2370112                       # Number of bytes written to this memory
system.mem_ctrls.bytes_written::total         2370112                       # Number of bytes written to this memory
system.mem_ctrls.num_reads::.cpu.inst             511                       # Number of read requests responded to by this memory
system.mem_ctrls.num_reads::.cpu.data           45507                       # Number of read requests responded to by this memory
system.mem_ctrls.num_reads::total               46018                       # Number of read requests responded to by this memory
system.mem_ctrls.num_writes::.writebacks        37033                       # Number of write requests responded to by this memory
system.mem_ctrls.num_writes::total              37033                       # Number of write requests responded to by this memory
system.mem_ctrls.bw_read::.cpu.inst            562276                       # Total read bandwidth from this memory (bytes/s)
system.mem_ctrls.bw_read::.cpu.data          50073355                       # Total read bandwidth from this memory (bytes/s)
system.mem_ctrls.bw_read::total              50635630                       # Total read bandwidth from this memory (bytes/s)
system.mem_ctrls.bw_inst_read::.cpu.inst       562276                       # Instruction read bandwidth from this memory (bytes/s)
system.mem_ctrls.bw_inst_read::total           562276                       # Instruction read bandwidth from this memory (bytes/s)
system.mem_ctrls.bw_write::.writebacks       40749040                       # Write bandwidth from this memory (bytes/s)
system.mem_ctrls.bw_write::total             40749040                       # Write bandwidth from this memory (bytes/s)
system.mem_ctrls.bw_total::.writebacks       40749040                       # Total bandwidth to/from this memory (bytes/s)
system.mem_ctrls.bw_total::.cpu.inst           562276                       # Total bandwidth to/from this memory (bytes/s)
system.mem_ctrls.bw_total::.cpu.data         50073355                       # Total bandwidth to/from this memory (bytes/s)
system.mem_ctrls.bw_total::total             91384670                       # Total bandwidth to/from this memory (bytes/s)
system.mem_ctrls.avgPriority_.writebacks::samples     37033.00                       # Average QoS priority value for accepted requests
system.mem_ctrls.avgPriority_.cpu.inst::samples       511.00                       # Average QoS priority value for accepted requests
system.mem_ctrls.avgPriority_.cpu.data::samples     45482.00                       # Average QoS priority value for accepted requests
system.mem_ctrls.priorityMinLatency      0.000000018750                       # per QoS priority minimum request to response latency (s)
system.mem_ctrls.priorityMaxLatency      0.000809942500                       # per QoS priority maximum request to response latency (s)
system.mem_ctrls.numReadWriteTurnArounds         2077                       # Number of turnarounds from READ to WRITE
system.mem_ctrls.numWriteReadTurnArounds         2077                       # Number of turnarounds from WRITE to READ
system.mem_ctrls.numStayReadState              143447                       # Number of times bus staying in READ state
system.mem_ctrls.numStayWriteState              34955                       # Number of times bus staying in WRITE state
system.mem_ctrls.readReqs                       46018                       # Number of read requests accepted
system.mem_ctrls.writeReqs                      37033                       # Number of write requests accepted
system.mem_ctrls.readBursts                     46018                       # Number of DRAM read bursts, including those serviced by the write queue
system.mem_ctrls.writeBursts                    37033                       # Number of DRAM write bursts, including those merged in the write queue
system.mem_ctrls.servicedByWrQ                     25                       # Number of DRAM read bursts serviced by the write queue
system.mem_ctrls.mergedWrBursts                     0                       # Number of DRAM write bursts merged with an existing one
system.mem_ctrls.neitherReadNorWriteReqs            0                       # Number of requests that are neither read nor write
system.mem_ctrls.perBankRdBursts::0              2863                       # Per bank write bursts
system.mem_ctrls.perBankRdBursts::1              2738                       # Per bank write bursts
system.mem_ctrls.perBankRdBursts::2              2710                       # Per bank write bursts
system.mem_ctrls.perBankRdBursts::3              2993                       # Per bank write bursts
system.mem_ctrls.perBankRdBursts::4              3129                       # Per bank write bursts
system.mem_ctrls.perBankRdBursts::5              2833                       # Per bank write bursts
system.mem_ctrls.perBankRdBursts::6              2847                       # Per bank write bursts
system.mem_ctrls.perBankRdBursts::7              2854                       # Per bank write bursts
system.mem_ctrls.perBankRdBursts::8              2862                       # Per bank write bursts
system.mem_ctrls.perBankRdBursts::9              2867                       # Per bank write bursts
system.mem_ctrls.perBankRdBursts::10             2852                       # Per bank write bursts
system.mem_ctrls.perBankRdBursts::11             2886                       # Per bank write bursts
system.mem_ctrls.perBankRdBursts::12             2918                       # Per bank write bursts
system.mem_ctrls.perBankRdBursts::13             2848                       # Per bank write bursts
system.mem_ctrls.perBankRdBursts::14             2919                       # Per bank write bursts
system.mem_ctrls.perBankRdBursts::15             2874                       # Per bank write bursts
system.mem_ctrls.perBankWrBursts::0              2292                       # Per bank write bursts
system.mem_ctrls.perBankWrBursts::1              2257                       # Per bank write bursts
system.mem_ctrls.perBankWrBursts::2              2231                       # Per bank write bursts
system.mem_ctrls.perBankWrBursts::3              2358                       # Per bank write bursts
system.mem_ctrls.perBankWrBursts::4              2500                       # Per bank write bursts
system.mem_ctrls.perBankWrBursts::5              2320                       # Per bank write bursts
system.mem_ctrls.perBankWrBursts::6              2332                       # Per bank write bursts
system.mem_ctrls.perBankWrBursts::7              2328                       # Per bank write bursts
system.mem_ctrls.perBankWrBursts::8              2317                       # Per bank write bursts
system.mem_ctrls.perBankWrBursts::9              2282                       # Per bank write bursts
system.mem_ctrls.perBankWrBursts::10             2282                       # Per bank write bursts
system.mem_ctrls.perBankWrBursts::11             2304                       # Per bank write bursts
system.mem_ctrls.perBankWrBursts::12             2324                       # Per bank write bursts
system.mem_ctrls.perBankWrBursts::13             2273                       # Per bank write bursts
system.mem_ctrls.perBankWrBursts::14             2311                       # Per bank write bursts
system.mem_ctrls.perBankWrBursts::15             2293                       # Per bank write bursts
system.mem_ctrls.avgRdQLen                       1.07                       # Average read queue length when enqueuing
system.mem_ctrls.avgWrQLen                      23.34                       # Average write queue length when enqueuing
system.mem_ctrls.totQLat                    528265750                       # Total ticks spent queuing
system.mem_ctrls.totBusLat                  229965000                       # Total ticks spent in databus transfers
system.mem_ctrls.totMemAccLat              1390634500                       # Total ticks spent from burst creation until serviced by the DRAM
system.mem_ctrls.avgQLat                     11485.79                       # Average queueing delay per DRAM burst
system.mem_ctrls.avgBusLat                    5000.00                       # Average bus latency per DRAM burst
system.mem_ctrls.avgMemAccLat                30235.79                       # Average memory access latency per DRAM burst
system.mem_ctrls.numRdRetry                         0                       # Number of times read queue was full causing retry
system.mem_ctrls.numWrRetry                         0                       # Number of times write queue was full causing retry
system.mem_ctrls.readRowHits                    27894                       # Number of row buffer hits during reads
system.mem_ctrls.writeRowHits                   24243                       # Number of row buffer hits during writes
system.mem_ctrls.readRowHitRate                 60.65                       # Row buffer hit rate for reads
system.mem_ctrls.writeRowHitRate                65.46                       # Row buffer hit rate for writes
system.mem_ctrls.readPktSize::0                     0                       # Read request sizes (log2)
system.mem_ctrls.readPktSize::1                     0                       # Read request sizes (log2)
system.mem_ctrls.readPktSize::2                     0                       # Read request sizes (log2)
system.mem_ctrls.readPktSize::3                     0                       # Read request sizes (log2)
system.mem_ctrls.readPktSize::4                     0                       # Read request sizes (log2)
system.mem_ctrls.readPktSize::5                     0                       # Read request sizes (log2)
system.mem_ctrls.readPktSize::6                 46018                       # Read request sizes (log2)
system.mem_ctrls.writePktSize::0                    0                       # Write request sizes (log2)
system.mem_ctrls.writePktSize::1                    0                       # Write request sizes (log2)
system.mem_ctrls.writePktSize::2                    0                       # Write request sizes (log2)
system.mem_ctrls.writePktSize::3                    0                       # Write request sizes (log2)
system.mem_ctrls.writePktSize::4                    0                       # Write request sizes (log2)
system.mem_ctrls.writePktSize::5                    0                       # Write request sizes (log2)
system.mem_ctrls.writePktSize::6                37033                       # Write request sizes (log2)
system.mem_ctrls.rdQLenPdf::0                   43719                       # What read queue length does an incoming req see
system.mem_ctrls.rdQLenPdf::1                    2267                       # What read queue length does an incoming req see
system.mem_ctrls.rdQLenPdf::2                       7                       # What read queue length does an incoming req see
system.mem_ctrls.rdQLenPdf::3                       0                       # What read queue length does an incoming req see
system.mem_ctrls.rdQLenPdf::4                       0                       # What read queue length does an incoming req see
system.mem_ctrls.rdQLenPdf::5                       0                       # What read queue length does an incoming req see
system.mem_ctrls.rdQLenPdf::6                       0                       # What read queue length does an incoming req see
system.mem_ctrls.rdQLenPdf::7                       0                       # What read queue length does an incoming req see
system.mem_ctrls.rdQLenPdf::8                       0                       # What read queue length does an incoming req see
system.mem_ctrls.rdQLenPdf::9                       0                       # What read queue length does an incoming req see
system.mem_ctrls.rdQLenPdf::10                      0                       # What read queue length does an incoming req see
system.mem_ctrls.rdQLenPdf::11                      0                       # What read queue length does an incoming req see
system.mem_ctrls.rdQLenPdf::12                      0                       # What read queue length does an incoming req see
system.mem_ctrls.rdQLenPdf::13                      0                       # What read queue length does an incoming req see
system.mem_ctrls.rdQLenPdf::14                      0                       # What read queue length does an incoming req see
system.mem_ctrls.rdQLenPdf::15                      0                       # What read queue length does an incoming req see
system.mem_ctrls.rdQLenPdf::16                      0                       # What read queue length does an incoming req see
system.mem_ctrls.rdQLenPdf::17                      0                       # What read queue length does an incoming req see
system.mem_ctrls.rdQLenPdf::18                      0                       # What read queue length does an incoming req see
system.mem_ctrls.rdQLenPdf::19                      0                       # What read queue length does an incoming req see
system.mem_ctrls.rdQLenPdf::20                      0                       # What read queue length does an incoming req see
system.mem_ctrls.rdQLenPdf::21                      0                       # What read queue length does an incoming req see
system.mem_ctrls.rdQLenPdf::22                      0                       # What read queue length does an incoming req see
system.mem_ctrls.rdQLenPdf::23                      0                       # What read queue length does an incoming req see
system.mem_ctrls.rdQLenPdf::24                      0                       # What read queue length does an incoming req see
system.mem_ctrls.rdQLenPdf::25                      0                       # What read queue length does an incoming req see
system.mem_ctrls.rdQLenPdf::26                      0                       # What read queue length does an incoming req see
system.mem_ctrls.rdQLenPdf::27                      0                       # What read queue length does an incoming req see
system.mem_ctrls.rdQLenPdf::28                      0                       # What read queue length does an incoming req see
system.mem_ctrls.rdQLenPdf::29                      0                       # What read queue length does an incoming req see
system.mem_ctrls.rdQLenPdf::30                      0                       # What read queue length does an incoming req see
system.mem_ctrls.rdQLenPdf::31                      0                       # What read queue length does an incoming req see
system.mem_ctrls.wrQLenPdf::0                       1                       # What write queue length does an incoming req see
system.mem_ctrls.wrQLenPdf::1                       1                       # What write queue length does an incoming req see
system.mem_ctrls.wrQLenPdf::2                       1                       # What write queue length does an incoming req see
system.mem_ctrls.wrQLenPdf::3                       1                       # What write queue length does an incoming req see
system.mem_ctrls.wrQLenPdf::4                       1                       # What write queue length does an incoming req see
system.mem_ctrls.wrQLenPdf::5                       1                       # What write queue length does an incoming req see
system.mem_ctrls.wrQLenPdf::6                       1                       # What write queue length does an incoming req see
system.mem_ctrls.wrQLenPdf::7                       1                       # What write queue length does an incoming req see
system.mem_ctrls.wrQLenPdf::8                       1                       # What write queue length does an incoming req see
system.mem_ctrls.wrQLenPdf::9                       1                       # What write queue length does an incoming req see
system.mem_ctrls.wrQLenPdf::10                      1                       # What write queue length does an incoming req see
system.mem_ctrls.wrQLenPdf::11                      1                       # What write queue length does an incoming req see
system.mem_ctrls.wrQLenPdf::12                      1                       # What write queue length does an incoming req see
system.mem_ctrls.wrQLenPdf::13                      1                       # What write queue length does an incoming req see
system.mem_ctrls.wrQLenPdf::14                      1                       # What write queue length does an incoming req see
system.mem_ctrls.wrQLenPdf::15                   1809                       # What write queue length does an incoming req see
system.mem_ctrls.wrQLenPdf::16                   1826                       # What write queue length does an incoming req see
system.mem_ctrls.wrQLenPdf::17                   2072                       # What write queue length does an incoming req see
system.mem_ctrls.wrQLenPdf::18                   2079                       # What write queue length does an incoming req see
system.mem_ctrls.wrQLenPdf::19                   2078                       # What write queue length does an incoming req see
system.mem_ctrls.wrQLenPdf::20                   2081                       # What write queue length does an incoming req see
system.mem_ctrls.wrQLenPdf::21                   2081                       # What write queue length does an incoming req see
system.mem_ctrls.wrQLenPdf::22                   2080                       # What write queue length does an incoming req see
system.mem_ctrls.wrQLenPdf::23                   2098                       # What write queue length does an incoming req see
system.mem_ctrls.wrQLenPdf::24                   2092                       # What write queue length does an incoming req see
system.mem_ctrls.wrQLenPdf::25                   2082                       # What write queue length does an incoming req see
system.mem_ctrls.wrQLenPdf::26                   2127                       # What write queue length does an incoming req see
system.mem_ctrls.wrQLenPdf::27                   2081                       # What write queue length does an incoming req see
system.mem_ctrls.wrQLenPdf::28                   2100                       # What write queue length does an incoming req see
system.mem_ctrls.wrQLenPdf::29                   2101                       # What write queue length does an incoming req see
system.mem_ctrls.wrQLenPdf::30                   2077                       # What write queue length does an incoming req see
system.mem_ctrls.wrQLenPdf::31                   2077                       # What write queue length does an incoming req see
system.mem_ctrls.wrQLenPdf::32                   2077                       # What write queue length does an incoming req see
system.mem_ctrls.wrQLenPdf::33                      0                       # What write queue length does an incoming req see
system.mem_ctrls.wrQLenPdf::34                      0                       # What write queue length does an incoming req see
system.mem_ctrls.wrQLenPdf::35                      0                       # What write queue length does an incoming req see
system.mem_ctrls.wrQLenPdf::36                      0                       # What write queue length does an incoming req see
system.mem_ctrls.wrQLenPdf::37                      0                       # What write queue length does an incoming req see
system.mem_ctrls.wrQLenPdf::38                      0                       # What write queue length does an incoming req see
system.mem_ctrls.wrQLenPdf::39                      0                       # What write queue length does an incoming req see
system.mem_ctrls.wrQLenPdf::40                      0                       # What write queue length does an incoming req see
system.mem_ctrls.wrQLenPdf::41                      0                       # What write queue length does an incoming req see
system.mem_ctrls.wrQLenPdf::42                      0                       # What write queue length does an incoming req see
system.mem_ctrls.wrQLenPdf::43                      0                       # What write queue length does an incoming req see
system.mem_ctrls.wrQLenPdf::44                      0                       # What write queue length does an incoming req see
system.mem_ctrls.wrQLenPdf::45                      0                       # What write queue length does an incoming req see
system.mem_ctrls.wrQLenPdf::46                      0                       # What write queue length does an incoming req see
system.mem_ctrls.wrQLenPdf::47                      0                       # What write queue length does an incoming req see
system.mem_ctrls.wrQLenPdf::48                      0                       # What write queue length does an incoming req see
system.mem_ctrls.wrQLenPdf::49                      0                       # What write queue length does an incoming req see
system.mem_ctrls.wrQLenPdf::50                      0                       # What write queue length does an incoming req see
system.mem_ctrls.wrQLenPdf::51                      0                       # What write queue length does an incoming req see
system.mem_ctrls.wrQLenPdf::52                      0                       # What write queue length does an incoming req see
system.mem_ctrls.wrQLenPdf::53                      0                       # What write queue length does an incoming req see
system.mem_ctrls.wrQLenPdf::54                      0                       # What write queue length does an incoming req see
system.mem_ctrls.wrQLenPdf::55                      0                       # What write queue length does an incoming req see
system.mem_ctrls.wrQLenPdf::56                      0                       # What write queue length does an incoming req see
system.mem_ctrls.wrQLenPdf::57                      0                       # What write queue length does an incoming req see
system.mem_ctrls.wrQLenPdf::58                      0                       # What write queue length does an incoming req see
system.mem_ctrls.wrQLenPdf::59                      0                       # What write queue length does an incoming req see
system.mem_ctrls.wrQLenPdf::60                      0                       # What write queue length does an incoming req see
system.mem_ctrls.wrQLenPdf::61                      0                       # What write queue length does an incoming req see
system.mem_ctrls.wrQLenPdf::62                      0                       # What write queue length does an incoming req see
system.mem_ctrls.wrQLenPdf::63                      0                       # What write queue length does an incoming req see
system.mem_ctrls.bytesPerActivate::samples        30860                       # Bytes accessed per row activation
system.mem_ctrls.bytesPerActivate::mean    172.125988                       # Bytes accessed per row activation
system.mem_ctrls.bytesPerActivate::gmean   127.383251                       # Bytes accessed per row activation
system.mem_ctrls.bytesPerActivate::stdev   160.079797                       # Bytes accessed per row activation
system.mem_ctrls.bytesPerActivate::0-127        13945     45.19%     45.19% # Bytes accessed per row activation
system.mem_ctrls.bytesPerActivate::128-255        10965     35.53%     80.72% # Bytes accessed per row activation
system.mem_ctrls.bytesPerActivate::256-383         2702      8.76%     89.48% # Bytes accessed per row activation
system.mem_ctrls.bytesPerActivate::384-511         1334      4.32%     93.80% # Bytes accessed per row activation
system.mem_ctrls.bytesPerActivate::512-639         1114      3.61%     97.41% # Bytes accessed per row activation
system.mem_ctrls.bytesPerActivate::640-767          344      1.11%     98.52% # Bytes accessed per row activation
system.mem_ctrls.bytesPerActivate::768-895          166      0.54%     99.06% # Bytes accessed per row activation
system.mem_ctrls.bytesPerActivate::896-1023          120      0.39%     99.45% # Bytes accessed per row activation
system.mem_ctrls.bytesPerActivate::1024-1151          170      0.55%    100.00% # Bytes accessed per row activation
system.mem_ctrls.bytesPerActivate::total        30860                       # Bytes accessed per row activation
system.mem_ctrls.rdPerTurnAround::samples         2077                       # Reads before turning the bus around for writes
system.mem_ctrls.rdPerTurnAround::mean      22.137217                       # Reads before turning the bus around for writes
system.mem_ctrls.rdPerTurnAround::gmean     18.039239                       # Reads before turning the bus around for writes
system.mem_ctrls.rdPerTurnAround::stdev    186.975161                       # Reads before turning the bus around for writes
system.mem_ctrls.rdPerTurnAround::0-511          2076     99.95%     99.95% # Reads before turning the bus around for writes
system.mem_ctrls.rdPerTurnAround::8192-8703            1      0.05%    100.00% # Reads before turning the bus around for writes
system.mem_ctrls.rdPerTurnAround::total          2077                       # Reads before turning the bus around for writes
[...]
system.cpu.icache.ReadReq_avg_miss_latency::total 78305.984556                       # average ReadReq miss latency
system.cpu.icache.ReadReq_mshr_misses::.cpu.inst          518                       # number of ReadReq MSHR misses
system.cpu.icache.ReadReq_mshr_misses::total          518                       # number of ReadReq MSHR misses
system.cpu.icache.ReadReq_mshr_miss_latency::.cpu.inst     40044500                       # number of ReadReq MSHR miss cycles
system.cpu.icache.ReadReq_mshr_miss_latency::total     40044500                       # number of ReadReq MSHR miss cycles
system.cpu.icache.ReadReq_mshr_miss_rate::.cpu.inst     0.000018                       # mshr miss rate for ReadReq accesses
system.cpu.icache.ReadReq_mshr_miss_rate::total     0.000018                       # mshr miss rate for ReadReq accesses
system.cpu.icache.ReadReq_avg_mshr_miss_latency::.cpu.inst 77305.984556                       # average ReadReq mshr miss latency
system.cpu.icache.ReadReq_avg_mshr_miss_latency::total 77305.984556                       # average ReadReq mshr miss latency
system.cpu.icache.tags.pwrStateResidencyTicks::UNDEFINED  58163628500                       # Cumulative time (in ticks) in various power states
system.cpu.icache.tags.tagsinuse           512.050135                       # Cycle average of tags in use
system.cpu.icache.tags.total_refs            28671062                       # Total number of references to valid blocks.
system.cpu.icache.tags.sampled_refs               518                       # Sample count of references to valid blocks.
system.cpu.icache.tags.avg_refs          55349.540541                       # Average number of references to valid blocks.
system.cpu.icache.tags.warmup_cycle             87500                       # Cycle when the warmup percentage was hit.
system.cpu.icache.tags.occ_blocks::.cpu.inst   512.050135                       # Average occupied blocks per requestor
system.cpu.icache.tags.occ_percent::.cpu.inst     0.500049                       # Average percentage of cache occupancy
system.cpu.icache.tags.occ_percent::total     0.500049                       # Average percentage of cache occupancy
system.cpu.icache.tags.occ_task_id_blocks::1024          513                       # Occupied blocks per task id
system.cpu.icache.tags.age_task_id_blocks_1024::4          513                       # Occupied blocks per task id
system.cpu.icache.tags.occ_task_id_percent::1024     0.500977                       # Percentage of cache occupancy per task id
system.cpu.icache.tags.tag_accesses         114684766                       # Number of tag accesses
system.cpu.icache.tags.data_accesses        114684766                       # Number of data accesses
system.cpu.dtb.walker.pwrStateResidencyTicks::UNDEFINED  58163628500                       # Cumulative time (in ticks) in various power states
system.cpu.dtb.stage2_mmu.stage2_tlb.walker.pwrStateResidencyTicks::UNDEFINED  58163628500                       # Cumulative time (in ticks) in various power states
system.cpu.dcache.pwrStateResidencyTicks::UNDEFINED  58163628500                       # Cumulative time (in ticks) in various power states
system.cpu.dcache.demand_hits::.cpu.data     35670360                       # number of demand (read+write) hits
system.cpu.dcache.demand_hits::total         35670360                       # number of demand (read+write) hits
system.cpu.dcache.overall_hits::.cpu.data     35673695                       # number of overall hits
system.cpu.dcache.overall_hits::total        35673695                       # number of overall hits
system.cpu.dcache.demand_misses::.cpu.data        67055                       # number of demand (read+write) misses
system.cpu.dcache.demand_misses::total          67055                       # number of demand (read+write) misses
system.cpu.dcache.overall_misses::.cpu.data        67081                       # number of overall misses
system.cpu.dcache.overall_misses::total         67081                       # number of overall misses
system.cpu.dcache.demand_miss_latency::.cpu.data   4999541500                       # number of demand (read+write) miss cycles
system.cpu.dcache.demand_miss_latency::total   4999541500                       # number of demand (read+write) miss cycles
system.cpu.dcache.overall_miss_latency::.cpu.data   4999541500                       # number of overall miss cycles
system.cpu.dcache.overall_miss_latency::total   4999541500                       # number of overall miss cycles
system.cpu.dcache.demand_accesses::.cpu.data     35737415                       # number of demand (read+write) accesses
system.cpu.dcache.demand_accesses::total     35737415                       # number of demand (read+write) accesses
system.cpu.dcache.overall_accesses::.cpu.data     35740776                       # number of overall (read+write) accesses
system.cpu.dcache.overall_accesses::total     35740776                       # number of overall (read+write) accesses
system.cpu.dcache.demand_miss_rate::.cpu.data     0.001876                       # miss rate for demand accesses
system.cpu.dcache.demand_miss_rate::total     0.001876                       # miss rate for demand accesses
system.cpu.dcache.overall_miss_rate::.cpu.data     0.001877                       # miss rate for overall accesses
system.cpu.dcache.overall_miss_rate::total     0.001877                       # miss rate for overall accesses
system.cpu.dcache.demand_avg_miss_latency::.cpu.data 74558.817389                       # average overall miss latency
system.cpu.dcache.demand_avg_miss_latency::total 74558.817389                       # average overall miss latency
system.cpu.dcache.overall_avg_miss_latency::.cpu.data 74529.919053                       # average overall miss latency
system.cpu.dcache.overall_avg_miss_latency::total 74529.919053                       # average overall miss latency
system.cpu.dcache.blocked_cycles::no_mshrs            0                       # number of cycles access was blocked
system.cpu.dcache.blocked_cycles::no_targets            0                       # number of cycles access was blocked
system.cpu.dcache.blocked::no_mshrs                 0                       # number of cycles access was blocked
system.cpu.dcache.blocked::no_targets               0                       # number of cycles access was blocked
system.cpu.dcache.avg_blocked_cycles::no_mshrs          nan                       # average number of cycles each access was blocked
system.cpu.dcache.avg_blocked_cycles::no_targets          nan                       # average number of cycles each access was blocked
system.cpu.dcache.writebacks::.writebacks        46605                       # number of writebacks
system.cpu.dcache.writebacks::total             46605                       # number of writebacks
system.cpu.dcache.demand_mshr_hits::.cpu.data        17481                       # number of demand (read+write) MSHR hits
system.cpu.dcache.demand_mshr_hits::total        17481                       # number of demand (read+write) MSHR hits
system.cpu.dcache.overall_mshr_hits::.cpu.data        17481                       # number of overall MSHR hits
system.cpu.dcache.overall_mshr_hits::total        17481                       # number of overall MSHR hits
system.cpu.dcache.demand_mshr_misses::.cpu.data        49574                       # number of demand (read+write) MSHR misses
system.cpu.dcache.demand_mshr_misses::total        49574                       # number of demand (read+write) MSHR misses
system.cpu.dcache.overall_mshr_misses::.cpu.data        49594                       # number of overall MSHR misses
system.cpu.dcache.overall_mshr_misses::total        49594                       # number of overall MSHR misses
system.cpu.dcache.demand_mshr_miss_latency::.cpu.data   3816188000                       # number of demand (read+write) MSHR miss cycles
system.cpu.dcache.demand_mshr_miss_latency::total   3816188000                       # number of demand (read+write) MSHR miss cycles
system.cpu.dcache.overall_mshr_miss_latency::.cpu.data   3817666500                       # number of overall MSHR miss cycles
system.cpu.dcache.overall_mshr_miss_latency::total   3817666500                       # number of overall MSHR miss cycles
system.cpu.dcache.demand_mshr_miss_rate::.cpu.data     0.001387                       # mshr miss rate for demand accesses
system.cpu.dcache.demand_mshr_miss_rate::total     0.001387                       # mshr miss rate for demand accesses
system.cpu.dcache.overall_mshr_miss_rate::.cpu.data     0.001388                       # mshr miss rate for overall accesses
system.cpu.dcache.overall_mshr_miss_rate::total     0.001388                       # mshr miss rate for overall accesses
system.cpu.dcache.demand_avg_mshr_miss_latency::.cpu.data 76979.626417                       # average overall mshr miss latency
system.cpu.dcache.demand_avg_mshr_miss_latency::total 76979.626417                       # average overall mshr miss latency
system.cpu.dcache.overall_avg_mshr_miss_latency::.cpu.data 76978.394564                       # average overall mshr miss latency
system.cpu.dcache.overall_avg_mshr_miss_latency::total 76978.394564                       # average overall mshr miss latency
system.cpu.dcache.replacements                  47546                       # number of replacements
system.cpu.dcache.ReadReq_hits::.cpu.data     21470943                       # number of ReadReq hits
system.cpu.dcache.ReadReq_hits::total        21470943                       # number of ReadReq hits
system.cpu.dcache.ReadReq_misses::.cpu.data        11721                       # number of ReadReq misses
system.cpu.dcache.ReadReq_misses::total         11721                       # number of ReadReq misses
system.cpu.dcache.ReadReq_miss_latency::.cpu.data    692776500                       # number of ReadReq miss cycles
system.cpu.dcache.ReadReq_miss_latency::total    692776500                       # number of ReadReq miss cycles
system.cpu.dcache.ReadReq_accesses::.cpu.data     21482664                       # number of ReadReq accesses(hits+misses)
system.cpu.dcache.ReadReq_accesses::total     21482664                       # number of ReadReq accesses(hits+misses)
system.cpu.dcache.ReadReq_miss_rate::.cpu.data     0.000546                       # miss rate for ReadReq accesses
system.cpu.dcache.ReadReq_miss_rate::total     0.000546                       # miss rate for ReadReq accesses
system.cpu.dcache.ReadReq_avg_miss_latency::.cpu.data 59105.579729                       # average ReadReq miss latency
system.cpu.dcache.ReadReq_avg_miss_latency::total 59105.579729                       # average ReadReq miss latency
system.cpu.dcache.ReadReq_mshr_hits::.cpu.data          959                       # number of ReadReq MSHR hits
system.cpu.dcache.ReadReq_mshr_hits::total          959                       # number of ReadReq MSHR hits
system.cpu.dcache.ReadReq_mshr_misses::.cpu.data        10762                       # number of ReadReq MSHR misses
system.cpu.dcache.ReadReq_mshr_misses::total        10762                       # number of ReadReq MSHR misses
system.cpu.dcache.ReadReq_mshr_miss_latency::.cpu.data    653369000                       # number of ReadReq MSHR miss cycles
system.cpu.dcache.ReadReq_mshr_miss_latency::total    653369000                       # number of ReadReq MSHR miss cycles
system.cpu.dcache.ReadReq_mshr_miss_rate::.cpu.data     0.000501                       # mshr miss rate for ReadReq accesses
system.cpu.dcache.ReadReq_mshr_miss_rate::total     0.000501                       # mshr miss rate for ReadReq accesses
system.cpu.dcache.ReadReq_avg_mshr_miss_latency::.cpu.data 60710.741498                       # average ReadReq mshr miss latency
system.cpu.dcache.ReadReq_avg_mshr_miss_latency::total 60710.741498                       # average ReadReq mshr miss latency
system.cpu.dcache.WriteReq_hits::.cpu.data     14199417                       # number of WriteReq hits
system.cpu.dcache.WriteReq_hits::total       14199417                       # number of WriteReq hits
system.cpu.dcache.WriteReq_misses::.cpu.data        55334                       # number of WriteReq misses
system.cpu.dcache.WriteReq_misses::total        55334                       # number of WriteReq misses
system.cpu.dcache.WriteReq_miss_latency::.cpu.data   4306765000                       # number of WriteReq miss cycles
system.cpu.dcache.WriteReq_miss_latency::total   4306765000                       # number of WriteReq miss cycles
system.cpu.dcache.WriteReq_accesses::.cpu.data     14254751                       # number of WriteReq accesses(hits+misses)
system.cpu.dcache.WriteReq_accesses::total     14254751                       # number of WriteReq accesses(hits+misses)
system.cpu.dcache.WriteReq_miss_rate::.cpu.data     0.003882                       # miss rate for WriteReq accesses
system.cpu.dcache.WriteReq_miss_rate::total     0.003882                       # miss rate for WriteReq accesses
system.cpu.dcache.WriteReq_avg_miss_latency::.cpu.data 77832.164673                       # average WriteReq miss latency
system.cpu.dcache.WriteReq_avg_miss_latency::total 77832.164673                       # average WriteReq miss latency
system.cpu.dcache.WriteReq_mshr_hits::.cpu.data        16522                       # number of WriteReq MSHR hits
system.cpu.dcache.WriteReq_mshr_hits::total        16522                       # number of WriteReq MSHR hits
system.cpu.dcache.WriteReq_mshr_misses::.cpu.data        38812                       # number of WriteReq MSHR misses
system.cpu.dcache.WriteReq_mshr_misses::total        38812                       # number of WriteReq MSHR misses
system.cpu.dcache.WriteReq_mshr_miss_latency::.cpu.data   3162819000                       # number of WriteReq MSHR miss cycles
system.cpu.dcache.WriteReq_mshr_miss_latency::total   3162819000                       # number of WriteReq MSHR miss cycles
system.cpu.dcache.WriteReq_mshr_miss_rate::.cpu.data     0.002723                       # mshr miss rate for WriteReq accesses
system.cpu.dcache.WriteReq_mshr_miss_rate::total     0.002723                       # mshr miss rate for WriteReq accesses
system.cpu.dcache.WriteReq_avg_mshr_miss_latency::.cpu.data 81490.750283                       # average WriteReq mshr miss latency
system.cpu.dcache.WriteReq_avg_mshr_miss_latency::total 81490.750283                       # average WriteReq mshr miss latency
system.cpu.dcache.SoftPFReq_hits::.cpu.data         3335                       # number of SoftPFReq hits
system.cpu.dcache.SoftPFReq_hits::total          3335                       # number of SoftPFReq hits
system.cpu.dcache.SoftPFReq_misses::.cpu.data           26                       # number of SoftPFReq misses
system.cpu.dcache.SoftPFReq_misses::total           26                       # number of SoftPFReq misses
system.cpu.dcache.SoftPFReq_accesses::.cpu.data         3361                       # number of SoftPFReq accesses(hits+misses)
system.cpu.dcache.SoftPFReq_accesses::total         3361                       # number of SoftPFReq accesses(hits+misses)
system.cpu.dcache.SoftPFReq_miss_rate::.cpu.data     0.007736                       # miss rate for SoftPFReq accesses
system.cpu.dcache.SoftPFReq_miss_rate::total     0.007736                       # miss rate for SoftPFReq accesses
system.cpu.dcache.SoftPFReq_mshr_misses::.cpu.data           20                       # number of SoftPFReq MSHR misses
system.cpu.dcache.SoftPFReq_mshr_misses::total           20                       # number of SoftPFReq MSHR misses
system.cpu.dcache.SoftPFReq_mshr_miss_latency::.cpu.data      1478500                       # number of SoftPFReq MSHR miss cycles
system.cpu.dcache.SoftPFReq_mshr_miss_latency::total      1478500                       # number of SoftPFReq MSHR miss cycles
system.cpu.dcache.SoftPFReq_mshr_miss_rate::.cpu.data     0.005951                       # mshr miss rate for SoftPFReq accesses
system.cpu.dcache.SoftPFReq_mshr_miss_rate::total     0.005951                       # mshr miss rate for SoftPFReq accesses
system.cpu.dcache.SoftPFReq_avg_mshr_miss_latency::.cpu.data        73925                       # average SoftPFReq mshr miss latency
system.cpu.dcache.SoftPFReq_avg_mshr_miss_latency::total        73925                       # average SoftPFReq mshr miss latency
system.cpu.dcache.LoadLockedReq_hits::.cpu.data        89082                       # number of LoadLockedReq hits
system.cpu.dcache.LoadLockedReq_hits::total        89082                       # number of LoadLockedReq hits
system.cpu.dcache.LoadLockedReq_accesses::.cpu.data        89082                       # number of LoadLockedReq accesses(hits+misses)
system.cpu.dcache.LoadLockedReq_accesses::total        89082                       # number of LoadLockedReq accesses(hits+misses)
system.cpu.dcache.StoreCondReq_hits::.cpu.data        89082                       # number of StoreCondReq hits
system.cpu.dcache.StoreCondReq_hits::total        89082                       # number of StoreCondReq hits
system.cpu.dcache.StoreCondReq_accesses::.cpu.data        89082                       # number of StoreCondReq accesses(hits+misses)
system.cpu.dcache.StoreCondReq_accesses::total        89082                       # number of StoreCondReq accesses(hits+misses)
system.cpu.dcache.tags.pwrStateResidencyTicks::UNDEFINED  58163628500                       # Cumulative time (in ticks) in various power states
system.cpu.dcache.tags.tagsinuse          2034.729738                       # Cycle average of tags in use
system.cpu.dcache.tags.total_refs            35901453                       # Total number of references to valid blocks.
system.cpu.dcache.tags.sampled_refs             49594                       # Sample count of references to valid blocks.
system.cpu.dcache.tags.avg_refs            723.907186                       # Average number of references to valid blocks.
system.cpu.dcache.tags.warmup_cycle            195500                       # Cycle when the warmup percentage was hit.
system.cpu.dcache.tags.occ_blocks::.cpu.data  2034.729738                       # Average occupied blocks per requestor
system.cpu.dcache.tags.occ_percent::.cpu.data     0.993520                       # Average percentage of cache occupancy
system.cpu.dcache.tags.occ_percent::total     0.993520                       # Average percentage of cache occupancy
system.cpu.dcache.tags.occ_task_id_blocks::1024         2048                       # Occupied blocks per task id
system.cpu.dcache.tags.age_task_id_blocks_1024::0            5                       # Occupied blocks per task id
system.cpu.dcache.tags.age_task_id_blocks_1024::1           34                       # Occupied blocks per task id
system.cpu.dcache.tags.age_task_id_blocks_1024::2          568                       # Occupied blocks per task id
system.cpu.dcache.tags.age_task_id_blocks_1024::3         1288                       # Occupied blocks per task id
system.cpu.dcache.tags.age_task_id_blocks_1024::4          153                       # Occupied blocks per task id
system.cpu.dcache.tags.occ_task_id_percent::1024            1                       # Percentage of cache occupancy per task id
system.cpu.dcache.tags.tag_accesses         143725354                       # Number of tag accesses
system.cpu.dcache.tags.data_accesses        143725354                       # Number of data accesses
system.cpu.itb.walker.pwrStateResidencyTicks::UNDEFINED  58163628500                       # Cumulative time (in ticks) in various power states
system.cpu.itb.stage2_mmu.stage2_tlb.walker.pwrStateResidencyTicks::UNDEFINED  58163628500                       # Cumulative time (in ticks) in various power states

---------- End Simulation Statistics   ----------
