
---------- Begin Simulation Statistics ----------
final_tick                                56158407500                       # Number of ticks from beginning of simulation (restored from checkpoints and never reset)
host_inst_rate                                 354976                       # Simulator instruction rate (inst/s)
host_mem_usage                                 686748                       # Number of bytes of host memory used
host_op_rate                                   388457                       # Simulator op (including micro ops) rate (op/s)
host_seconds                                   281.71                       # Real time elapsed on the host
host_tick_rate                              199348757                       # Simulator tick rate (ticks/s)
sim_freq                                 1000000000000                       # Frequency of simulated ticks
sim_insts                                   100000001                       # Number of instructions simulated
sim_ops                                     109431937                       # Number of ops (including micro ops) simulated
sim_seconds                                  0.056158                       # Number of seconds simulated
sim_ticks                                 56158407500                       # Number of ticks simulated
system.cpu.branchPred.BTBCorrect                    0                       # Number of correct BTB predictions (this stat may not work properly.
system.cpu.branchPred.BTBHitPct             87.716405                       # BTB Hit Percentage
system.cpu.branchPred.BTBHits                 8743509                       # Number of BTB hits
system.cpu.branchPred.BTBLookups              9967929                       # Number of BTB lookups
system.cpu.branchPred.RASInCorrect                348                       # Number of incorrect RAS predictions.
system.cpu.branchPred.condIncorrect            155052                       # Number of conditional branches incorrect
system.cpu.branchPred.condPredicted          16496464                       # Number of conditional branches predicted
system.cpu.branchPred.indirectHits             300027                       # Number of indirect target hits.
system.cpu.branchPred.indirectLookups          526295                       # Number of indirect predictor lookups.
system.cpu.branchPred.indirectMisses           226268                       # Number of indirect misses.
system.cpu.branchPred.lookups                20603562                       # Number of BP lookups
system.cpu.branchPred.usedRAS                 1050701                       # Number of times the RAS was used to get a target.
system.cpu.branchPredindirectMispredicted         1238                       # Number of mispredicted indirect branches.
system.cpu.committedInsts                   100000001                       # Number of instructions committed
system.cpu.committedOps                     109431937                       # Number of ops (including micro ops) committed
system.cpu.cpi                               1.123168                       # CPI: cycles per instruction
system.cpu.discardedOps                        720172                       # Number of ops (including micro ops) which were discarded before commit
system.cpu.dtb.accesses                             0                       # DTB accesses
system.cpu.dtb.align_faults                         0                       # Number of TLB faults due to alignment restrictions
system.cpu.dtb.domain_faults                        0                       # Number of TLB faults due to domain restrictions
system.cpu.dtb.flush_entries                        0                       # Number of entries that have been flushed from TLB
system.cpu.dtb.flush_tlb                            0                       # Number of times complete TLB was flushed
system.cpu.dtb.flush_tlb_asid                       0                       # Number of times TLB was flushed by ASID
system.cpu.dtb.flush_tlb_mva                        0                       # Number of times TLB was flushed by MVA
system.cpu.dtb.flush_tlb_mva_asid                   0                       # Number of times TLB was flushed by MVA & ASID
system.cpu.dtb.hits                                 0                       # DTB hits
system.cpu.dtb.inst_accesses                        0                       # ITB inst accesses
system.cpu.dtb.inst_hits                            0                       # ITB inst hits
system.cpu.dtb.inst_misses                          0                       # ITB inst misses
system.cpu.dtb.misses                               0                       # DTB misses
system.cpu.dtb.perms_faults                         0                       # Number of TLB faults due to permissions restrictions
system.cpu.dtb.prefetch_faults                      0                       # Number of TLB faults due to prefetch
system.cpu.dtb.read_accesses                        0                       # DTB read accesses
system.cpu.dtb.read_hits                            0                       # DTB read hits
system.cpu.dtb.read_misses                          0                       # DTB read misses
system.cpu.dtb.stage2_mmu.stage2_tlb.accesses            0                       # DTB accesses
system.cpu.dtb.stage2_mmu.stage2_tlb.align_faults            0                       # Number of TLB faults due to alignment restrictions
system.cpu.dtb.stage2_mmu.stage2_tlb.domain_faults            0                       # Number of TLB faults due to domain restrictions
system.cpu.dtb.stage2_mmu.stage2_tlb.flush_entries            0                       # Number of entries that have been flushed from TLB
system.cpu.dtb.stage2_mmu.stage2_tlb.flush_tlb            0                       # Number of times complete TLB was flushed
system.cpu.dtb.stage2_mmu.stage2_tlb.flush_tlb_asid            0                       # Number of times TLB was flushed by ASID
system.cpu.dtb.stage2_mmu.stage2_tlb.flush_tlb_mva            0                       # Number of times TLB was flushed by MVA
system.cpu.dtb.stage2_mmu.stage2_tlb.flush_tlb_mva_asid            0                       # Number of times TLB was flushed by MVA & ASID
system.cpu.dtb.stage2_mmu.stage2_tlb.hits            0                       # DTB hits
system.cpu.dtb.stage2_mmu.stage2_tlb.inst_accesses            0                       # ITB inst accesses
system.cpu.dtb.stage2_mmu.stage2_tlb.inst_hits            0                       # ITB inst hits
system.cpu.dtb.stage2_mmu.stage2_tlb.inst_misses            0                       # ITB inst misses
system.cpu.dtb.stage2_mmu.stage2_tlb.misses            0                       # DTB misses
system.cpu.dtb.stage2_mmu.stage2_tlb.perms_faults            0                       # Number of TLB faults due to permissions restrictions
system.cpu.dtb.stage2_mmu.stage2_tlb.prefetch_faults            0                       # Number of TLB faults due to prefetch
system.cpu.dtb.stage2_mmu.stage2_tlb.read_accesses            0                       # DTB read accesses
system.cpu.dtb.stage2_mmu.stage2_tlb.read_hits            0                       # DTB read hits
system.cpu.dtb.stage2_mmu.stage2_tlb.read_misses            0                       # DTB read misses
system.cpu.dtb.stage2_mmu.stage2_tlb.walker.walkRequestOrigin_Requested::Data            0                       # Table walker requests started/completed, data/inst
system.cpu.dtb.stage2_mmu.stage2_tlb.walker.walkRequestOrigin_Requested::Inst            0                       # Table walker requests started/completed, data/inst
system.cpu.dtb.stage2_mmu.stage2_tlb.walker.walkRequestOrigin_Requested::total            0                       # Table walker requests started/completed, data/inst
system.cpu.dtb.stage2_mmu.stage2_tlb.walker.walkRequestOrigin_Completed::Data            0                       # Table walker requests started/completed, data/inst
system.cpu.dtb.stage2_mmu.stage2_tlb.walker.walkRequestOrigin_Completed::Inst            0                       # Table walker requests started/completed, data/inst
system.cpu.dtb.stage2_mmu.stage2_tlb.walker.walkRequestOrigin_Completed::total            0                       # Table walker requests started/completed, data/inst
system.cpu.dtb.stage2_mmu.stage2_tlb.walker.walkRequestOrigin::total            0                       # Table walker requests started/completed, data/inst
system.cpu.dtb.stage2_mmu.stage2_tlb.walker.walks            0                       # Table walker walks requested
system.cpu.dtb.stage2_mmu.stage2_tlb.write_accesses            0                       # DTB write accesses
system.cpu.dtb.stage2_mmu.stage2_tlb.write_hits            0                       # DTB write hits
system.cpu.dtb.stage2_mmu.stage2_tlb.write_misses            0                       # DTB write misses
system.cpu.dtb.walker.walkRequestOrigin_Requested::Data            0                       # Table walker requests started/completed, data/inst
system.cpu.dtb.walker.walkRequestOrigin_Requested::Inst            0                       # Table walker requests started/completed, data/inst
system.cpu.dtb.walker.walkRequestOrigin_Requested::total            0                       # Table walker requests started/completed, data/inst
system.cpu.dtb.walker.walkRequestOrigin_Completed::Data            0                       # Table walker requests started/completed, data/inst
system.cpu.dtb.walker.walkRequestOrigin_Completed::Inst            0                       # Table walker requests started/completed, data/inst
system.cpu.dtb.walker.walkRequestOrigin_Completed::total            0                       # Table walker requests started/completed, data/inst
system.cpu.dtb.walker.walkRequestOrigin::total            0                       # Table walker requests started/completed, data/inst
system.cpu.dtb.walker.walks                         0                       # Table walker walks requested
system.cpu.dtb.write_accesses                       0                       # DTB write accesses
system.cpu.dtb.write_hits                           0                       # DTB write hits
system.cpu.dtb.write_misses                         0                       # DTB write misses
system.cpu.fetch2.amo_instructions                  0                       # Number of memory atomic instructions successfully decoded
system.cpu.fetch2.fp_instructions                   0                       # Number of floating point instructions successfully decoded
system.cpu.fetch2.int_instructions           49942210                       # Number of integer instructions successfully decoded
system.cpu.fetch2.load_instructions          17195549                       # Number of memory load instructions successfully decoded
system.cpu.fetch2.store_instructions         10035235                       # Number of memory store instructions successfully decoded
system.cpu.fetch2.vec_instructions                  0                       # Number of SIMD instructions successfully decoded
system.cpu.idleCycles                         2784604                       # Total number of cycles that the object has spent stopped
system.cpu.ipc                               0.890339                       # IPC: instructions per cycle
system.cpu.itb.accesses                             0                       # DTB accesses
system.cpu.itb.align_faults                         0                       # Number of TLB faults due to alignment restrictions
system.cpu.itb.domain_faults                        0                       # Number of TLB faults due to domain restrictions
system.cpu.itb.flush_entries                        0                       # Number of entries that have been flushed from TLB
system.cpu.itb.flush_tlb                            0                       # Number of times complete TLB was flushed
system.cpu.itb.flush_tlb_asid                       0                       # Number of times TLB was flushed by ASID
system.cpu.itb.flush_tlb_mva                        0                       # Number of times TLB was flushed by MVA
system.cpu.itb.flush_tlb_mva_asid                   0                       # Number of times TLB was flushed by MVA & ASID
system.cpu.itb.hits                                 0                       # DTB hits
system.cpu.itb.inst_accesses                        0                       # ITB inst accesses
system.cpu.itb.inst_hits                            0                       # ITB inst hits
system.cpu.itb.inst_misses                          0                       # ITB inst misses
system.cpu.itb.misses                               0                       # DTB misses
system.cpu.itb.perms_faults                         0                       # Number of TLB faults due to permissions restrictions
system.cpu.itb.prefetch_faults                      0                       # Number of TLB faults due to prefetch
system.cpu.itb.read_accesses                        0                       # DTB read accesses
system.cpu.itb.read_hits                            0                       # DTB read hits
system.cpu.itb.read_misses                          0                       # DTB read misses
system.cpu.itb.stage2_mmu.stage2_tlb.accesses            0                       # DTB accesses
system.cpu.itb.stage2_mmu.stage2_tlb.align_faults            0                       # Number of TLB faults due to alignment restrictions
system.cpu.itb.stage2_mmu.stage2_tlb.domain_faults            0                       # Number of TLB faults due to domain restrictions
system.cpu.itb.stage2_mmu.stage2_tlb.flush_entries            0                       # Number of entries that have been flushed from TLB
system.cpu.itb.stage2_mmu.stage2_tlb.flush_tlb            0                       # Number of times complete TLB was flushed
system.cpu.itb.stage2_mmu.stage2_tlb.flush_tlb_asid            0                       # Number of times TLB was flushed by ASID
system.cpu.itb.stage2_mmu.stage2_tlb.flush_tlb_mva            0                       # Number of times TLB was flushed by MVA
system.cpu.itb.stage2_mmu.stage2_tlb.flush_tlb_mva_asid            0                       # Number of times TLB was flushed by MVA & ASID
system.cpu.itb.stage2_mmu.stage2_tlb.hits            0                       # DTB hits
system.cpu.itb.stage2_mmu.stage2_tlb.inst_accesses            0                       # ITB inst accesses
system.cpu.itb.stage2_mmu.stage2_tlb.inst_hits            0                       # ITB inst hits
system.cpu.itb.stage2_mmu.stage2_tlb.inst_misses            0                       # ITB inst misses
system.cpu.itb.stage2_mmu.stage2_tlb.misses            0                       # DTB misses
system.cpu.itb.stage2_mmu.stage2_tlb.perms_faults            0                       # Number of TLB faults due to permissions restrictions
system.cpu.itb.stage2_mmu.stage2_tlb.prefetch_faults            0                       # Number of TLB faults due to prefetch
system.cpu.itb.stage2_mmu.stage2_tlb.read_accesses            0                       # DTB read accesses
system.cpu.itb.stage2_mmu.stage2_tlb.read_hits            0                       # DTB read hits
system.cpu.itb.stage2_mmu.stage2_tlb.read_misses            0                       # DTB read misses
system.cpu.itb.stage2_mmu.stage2_tlb.walker.walkRequestOrigin_Requested::Data            0                       # Table walker requests started/completed, data/inst
system.cpu.itb.stage2_mmu.stage2_tlb.walker.walkRequestOrigin_Requested::Inst            0                       # Table walker requests started/completed, data/inst
system.cpu.itb.stage2_mmu.stage2_tlb.walker.walkRequestOrigin_Requested::total            0                       # Table walker requests started/completed, data/inst
system.cpu.itb.stage2_mmu.stage2_tlb.walker.walkRequestOrigin_Completed::Data            0                       # Table walker requests started/completed, data/inst
system.cpu.itb.stage2_mmu.stage2_tlb.walker.walkRequestOrigin_Completed::Inst            0                       # Table walker requests started/completed, data/inst
system.cpu.itb.stage2_mmu.stage2_tlb.walker.walkRequestOrigin_Completed::total            0                       # Table walker requests started/completed, data/inst
system.cpu.itb.stage2_mmu.stage2_tlb.walker.walkRequestOrigin::total            0                       # Table walker requests started/completed, data/inst
system.cpu.itb.stage2_mmu.stage2_tlb.walker.walks            0                       # Table walker walks requested
system.cpu.itb.stage2_mmu.stage2_tlb.write_accesses            0                       # DTB write accesses
system.cpu.itb.stage2_mmu.stage2_tlb.write_hits            0                       # DTB write hits
system.cpu.itb.stage2_mmu.stage2_tlb.write_misses            0                       # DTB write misses
system.cpu.itb.walker.walkRequestOrigin_Requested::Data            0                       # Table walker requests started/completed, data/inst
system.cpu.itb.walker.walkRequestOrigin_Requested::Inst            0                       # Table walker requests started/completed, data/inst
system.cpu.itb.walker.walkRequestOrigin_Requested::total            0                       # Table walker requests started/completed, data/inst
system.cpu.itb.walker.walkRequestOrigin_Completed::Data            0                       # Table walker requests started/completed, data/inst
system.cpu.itb.walker.walkRequestOrigin_Completed::Inst            0                       # Table walker requests started/completed, data/inst
system.cpu.itb.walker.walkRequestOrigin_Completed::total            0                       # Table walker requests started/completed, data/inst
system.cpu.itb.walker.walkRequestOrigin::total            0                       # Table walker requests started/completed, data/inst
system.cpu.itb.walker.walks                         0                       # Table walker walks requested
system.cpu.itb.write_accesses                       0                       # DTB write accesses
system.cpu.itb.write_hits                           0                       # DTB write hits
system.cpu.itb.write_misses                         0                       # DTB write misses
system.cpu.numCycles                        112316815                       # number of cpu cycles simulated
system.cpu.numFetchSuspends                         0                       # Number of times Execute suspended instruction fetching
system.cpu.numWorkItemsCompleted                    0                       # number of work items this cpu completed
system.cpu.numWorkItemsStarted                      0                       # number of work items this cpu started
system.cpu.op_class_0::No_OpClass                   0      0.00%      0.00% # Class of committed instruction
system.cpu.op_class_0::IntAlu                72955303     66.67%     66.67% # Class of committed instruction
system.cpu.op_class_0::IntMult                 568365      0.52%     67.19% # Class of committed instruction
system.cpu.op_class_0::IntDiv                       0      0.00%     67.19% # Class of committed instruction
system.cpu.op_class_0::FloatAdd                     0      0.00%     67.19% # Class of committed instruction
system.cpu.op_class_0::FloatCmp                     0      0.00%     67.19% # Class of committed instruction
system.cpu.op_class_0::FloatCvt                     0      0.00%     67.19% # Class of committed instruction
system.cpu.op_class_0::FloatMult                    0      0.00%     67.19% # Class of committed instruction
system.cpu.op_class_0::FloatMultAcc                 0      0.00%     67.19% # Class of committed instruction
system.cpu.op_class_0::FloatDiv                     0      0.00%     67.19% # Class of committed instruction
system.cpu.op_class_0::FloatMisc                    0      0.00%     67.19% # Class of committed instruction
system.cpu.op_class_0::FloatSqrt                    0      0.00%     67.19% # Class of committed instruction
system.cpu.op_class_0::SimdAdd                 241252      0.22%     67.41% # Class of committed instruction
system.cpu.op_class_0::SimdAddAcc                   0      0.00%     67.41% # Class of committed instruction
system.cpu.op_class_0::SimdAlu                 154720      0.14%     67.55% # Class of committed instruction
system.cpu.op_class_0::SimdCmp                 120626      0.11%     67.66% # Class of committed instruction
system.cpu.op_class_0::SimdCvt                      0      0.00%     67.66% # Class of committed instruction
system.cpu.op_class_0::SimdMisc                 44544      0.04%     67.70% # Class of committed instruction
system.cpu.op_class_0::SimdMult                     0      0.00%     67.70% # Class of committed instruction
system.cpu.op_class_0::SimdMultAcc                  0      0.00%     67.70% # Class of committed instruction
system.cpu.op_class_0::SimdShift                    0      0.00%     67.70% # Class of committed instruction
system.cpu.op_class_0::SimdShiftAcc                 0      0.00%     67.70% # Class of committed instruction
system.cpu.op_class_0::SimdDiv                      0      0.00%     67.70% # Class of committed instruction
system.cpu.op_class_0::SimdSqrt                     0      0.00%     67.70% # Class of committed instruction
system.cpu.op_class_0::SimdFloatAdd                 0      0.00%     67.70% # Class of committed instruction
system.cpu.op_class_0::SimdFloatAlu                 0      0.00%     67.70% # Class of committed instruction
system.cpu.op_class_0::SimdFloatCmp                 0      0.00%     67.70% # Class of committed instruction
system.cpu.op_class_0::SimdFloatCvt                 0      0.00%     67.70% # Class of committed instruction
system.cpu.op_class_0::SimdFloatDiv                 0      0.00%     67.70% # Class of committed instruction
system.cpu.op_class_0::SimdFloatMisc           166465      0.15%     67.85% # Class of committed instruction
system.cpu.op_class_0::SimdFloatMult                0      0.00%     67.85% # Class of committed instruction
system.cpu.op_class_0::SimdFloatMultAcc             0      0.00%     67.85% # Class of committed instruction
system.cpu.op_class_0::SimdFloatSqrt                0      0.00%     67.85% # Class of committed instruction
system.cpu.op_class_0::SimdReduceAdd                0      0.00%     67.85% # Class of committed instruction
system.cpu.op_class_0::SimdReduceAlu                0      0.00%     67.85% # Class of committed instruction
system.cpu.op_class_0::SimdReduceCmp                0      0.00%     67.85% # Class of committed instruction
system.cpu.op_class_0::SimdFloatReduceAdd            0      0.00%     67.85% # Class of committed instruction
system.cpu.op_class_0::SimdFloatReduceCmp            0      0.00%     67.85% # Class of committed instruction
system.cpu.op_class_0::SimdAes                      0      0.00%     67.85% # Class of committed instruction
system.cpu.op_class_0::SimdAesMix                   0      0.00%     67.85% # Class of committed instruction
system.cpu.op_class_0::SimdSha1Hash                 0      0.00%     67.85% # Class of committed instruction
system.cpu.op_class_0::SimdSha1Hash2                0      0.00%     67.85% # Class of committed instruction
system.cpu.op_class_0::SimdSha256Hash               0      0.00%     67.85% # Class of committed instruction
system.cpu.op_class_0::SimdSha256Hash2              0      0.00%     67.85% # Class of committed instruction
system.cpu.op_class_0::SimdShaSigma2                0      0.00%     67.85% # Class of committed instruction
system.cpu.op_class_0::SimdShaSigma3                0      0.00%     67.85% # Class of committed instruction
system.cpu.op_class_0::SimdPredAlu                  0      0.00%     67.85% # Class of committed instruction
system.cpu.op_class_0::MemRead               20646465     18.87%     86.72% # Class of committed instruction
system.cpu.op_class_0::MemWrite              14534197     13.28%    100.00% # Class of committed instruction
system.cpu.op_class_0::FloatMemRead                 0      0.00%    100.00% # Class of committed instruction
system.cpu.op_class_0::FloatMemWrite                0      0.00%    100.00% # Class of committed instruction
system.cpu.op_class_0::IprAccess                    0      0.00%    100.00% # Class of committed instruction
system.cpu.op_class_0::InstPrefetch                 0      0.00%    100.00% # Class of committed instruction
system.cpu.op_class_0::total                109431937                       # Class of committed instruction
system.cpu.tickCycles                       109532211                       # Number of cycles that the object actually ticked
system.cpu.workload.numSyscalls                    86                       # Number of system calls
system.membus.snoop_filter.hit_multi_requests            0                       # Number of requests hitting in the snoop filter with multiple (>1) holders of the requested data.
system.membus.snoop_filter.hit_multi_snoops            0                       # Number of snoops hitting in the snoop filter with multiple (>1) holders of the requested data.
system.membus.snoop_filter.hit_single_requests         3355                       # Number of requests hitting in the snoop filter with a single holder of the requested data.
system.membus.snoop_filter.hit_single_snoops            0                       # Number of snoops hitting in the snoop filter with a single holder of the requested data.
system.membus.snoop_filter.tot_requests         23468                       # Total number of requests made to the snoop filter.
system.membus.snoop_filter.tot_snoops               0                       # Total number of snoops made to the snoop filter.
system.tol2bus.snoop_filter.hit_multi_requests           22                       # Number of requests hitting in the snoop filter with multiple (>1) holders of the requested data.
system.tol2bus.snoop_filter.hit_multi_snoops            4                       # Number of snoops hitting in the snoop filter with multiple (>1) holders of the requested data.
system.tol2bus.snoop_filter.hit_single_requests        28789                       # Number of requests hitting in the snoop filter with a single holder of the requested data.
system.tol2bus.snoop_filter.hit_single_snoops          370                       # Number of snoops hitting in the snoop filter with a single holder of the requested data.
system.tol2bus.snoop_filter.tot_requests        58937                       # Total number of requests made to the snoop filter.
system.tol2bus.snoop_filter.tot_snoops            374                       # Total number of snoops made to the snoop filter.
system.membus.pwrStateResidencyTicks::UNDEFINED  56158407500                       # Cumulative time (in ticks) in various power states
system.membus.trans_dist::ReadResp                701                       # Transaction distribution
system.membus.trans_dist::WritebackDirty         3316                       # Transaction distribution
system.membus.trans_dist::CleanEvict               39                       # Transaction distribution
system.membus.trans_dist::ReadExReq             19412                       # Transaction distribution
system.membus.trans_dist::ReadExResp            19412                       # Transaction distribution
system.membus.trans_dist::ReadSharedReq           701                       # Transaction distribution
system.membus.pkt_count_system.l2.mem_side::system.mem_ctrls.port        43581                       # Packet count per connected master and slave (bytes)
system.membus.pkt_count::total                  43581                       # Packet count per connected master and slave (bytes)
system.membus.pkt_size_system.l2.mem_side::system.mem_ctrls.port      2998912                       # Cumulative packet size per connected master and slave (bytes)
system.membus.pkt_size::total                 2998912                       # Cumulative packet size per connected master and slave (bytes)
system.membus.snoops                                0                       # Total snoops (count)
system.membus.snoopTraffic                          0                       # Total snoop traffic (bytes)
system.membus.snoop_fanout::samples             20113                       # Request fanout histogram
system.membus.snoop_fanout::mean                    0                       # Request fanout histogram
system.membus.snoop_fanout::stdev                   0                       # Request fanout histogram
system.membus.snoop_fanout::underflows              0      0.00%      0.00% # Request fanout histogram
system.membus.snoop_fanout::0                   20113    100.00%    100.00% # Request fanout histogram
system.membus.snoop_fanout::1                       0      0.00%    100.00% # Request fanout histogram
system.membus.snoop_fanout::overflows               0      0.00%    100.00% # Request fanout histogram
system.membus.snoop_fanout::min_value               0                       # Request fanout histogram
system.membus.snoop_fanout::max_value               0                       # Request fanout histogram
system.membus.snoop_fanout::total               20113                       # Request fanout histogram
system.membus.respLayer1.occupancy          188661000                       # Layer occupancy (ticks)
system.membus.respLayer1.utilization              0.3                       # Layer utilization (%)
system.membus.reqLayer0.occupancy            54964500                       # Layer occupancy (ticks)
system.membus.reqLayer0.utilization               0.1                       # Layer utilization (%)
system.tol2bus.pwrStateResidencyTicks::UNDEFINED  56158407500                       # Cumulative time (in ticks) in various power states
system.tol2bus.trans_dist::ReadResp             10741                       # Transaction distribution
system.tol2bus.trans_dist::WritebackDirty        31579                       # Transaction distribution
system.tol2bus.trans_dist::CleanEvict             934                       # Transaction distribution
system.tol2bus.trans_dist::ReadExReq            19412                       # Transaction distribution
system.tol2bus.trans_dist::ReadExResp           19412                       # Transaction distribution
system.tol2bus.trans_dist::ReadCleanReq           345                       # Transaction distribution
system.tol2bus.trans_dist::ReadSharedReq        10396                       # Transaction distribution
system.tol2bus.pkt_count_system.cpu.icache.mem_side::system.l2.cpu_side          690                       # Packet count per connected master and slave (bytes)
system.tol2bus.pkt_count_system.cpu.dcache.mem_side::system.l2.cpu_side        88400                       # Packet count per connected master and slave (bytes)
system.tol2bus.pkt_count::total                 89090                       # Packet count per connected master and slave (bytes)
system.tol2bus.pkt_size_system.cpu.icache.mem_side::system.l2.cpu_side        44160                       # Cumulative packet size per connected master and slave (bytes)
system.tol2bus.pkt_size_system.cpu.dcache.mem_side::system.l2.cpu_side      7433088                       # Cumulative packet size per connected master and slave (bytes)
system.tol2bus.pkt_size::total                7477248                       # Cumulative packet size per connected master and slave (bytes)
system.tol2bus.snoops                            3729                       # Total snoops (count)
system.tol2bus.snoopTraffic                    424448                       # Total snoop traffic (bytes)
system.tol2bus.snoop_fanout::samples            33882                       # Request fanout histogram
system.tol2bus.snoop_fanout::mean            0.011953                       # Request fanout histogram
system.tol2bus.snoop_fanout::stdev           0.109758                       # Request fanout histogram
system.tol2bus.snoop_fanout::underflows             0      0.00%      0.00% # Request fanout histogram
system.tol2bus.snoop_fanout::0                  33481     98.82%     98.82% # Request fanout histogram
system.tol2bus.snoop_fanout::1                    397      1.17%     99.99% # Request fanout histogram
system.tol2bus.snoop_fanout::2                      4      0.01%    100.00% # Request fanout histogram
system.tol2bus.snoop_fanout::overflows              0      0.00%    100.00% # Request fanout histogram
system.tol2bus.snoop_fanout::min_value              0                       # Request fanout histogram
system.tol2bus.snoop_fanout::max_value              2                       # Request fanout histogram
system.tol2bus.snoop_fanout::total              33882                       # Request fanout histogram
system.tol2bus.reqLayer0.occupancy           85994500                       # Layer occupancy (ticks)
system.tol2bus.reqLayer0.utilization              0.2                       # Layer utilization (%)
system.tol2bus.respLayer1.occupancy          74521996                       # Layer occupancy (ticks)
system.tol2bus.respLayer1.utilization             0.1                       # Layer utilization (%)
system.tol2bus.respLayer0.occupancy            862500                       # Layer occupancy (ticks)
system.tol2bus.respLayer0.utilization             0.0                       # Layer utilization (%)
system.voltage_domain.voltage                       1                       # Voltage in Volts
system.clk_domain.clock                          1000                       # Clock period in ticks
system.l2.pwrStateResidencyTicks::UNDEFINED  56158407500                       # Cumulative time (in ticks) in various power states
system.l2.demand_hits::.cpu.inst                    9                       # number of demand (read+write) hits
system.l2.demand_hits::.cpu.data                10027                       # number of demand (read+write) hits
system.l2.demand_hits::total                    10036                       # number of demand (read+write) hits
system.l2.overall_hits::.cpu.inst                   9                       # number of overall hits
system.l2.overall_hits::.cpu.data               10027                       # number of overall hits
system.l2.overall_hits::total                   10036                       # number of overall hits
system.l2.demand_misses::.cpu.inst                336                       # number of demand (read+write) misses
system.l2.demand_misses::.cpu.data              19781                       # number of demand (read+write) misses
system.l2.demand_misses::total                  20117                       # number of demand (read+write) misses
system.l2.overall_misses::.cpu.inst               336                       # number of overall misses
system.l2.overall_misses::.cpu.data             19781                       # number of overall misses
system.l2.overall_misses::total                 20117                       # number of overall misses
system.l2.demand_miss_latency::.cpu.inst     27815000                       # number of demand (read+write) miss cycles
system.l2.demand_miss_latency::.cpu.data   1722744500                       # number of demand (read+write) miss cycles
system.l2.demand_miss_latency::total       1750559500                       # number of demand (read+write) miss cycles
system.l2.overall_miss_latency::.cpu.inst     27815000                       # number of overall miss cycles
system.l2.overall_miss_latency::.cpu.data   1722744500                       # number of overall miss cycles
system.l2.overall_miss_latency::total      1750559500                       # number of overall miss cycles
system.l2.demand_accesses::.cpu.inst              345                       # number of demand (read+write) accesses
system.l2.demand_accesses::.cpu.data            29808                       # number of demand (read+write) accesses
system.l2.demand_accesses::total                30153                       # number of demand (read+write) accesses
system.l2.overall_accesses::.cpu.inst             345                       # number of overall (read+write) accesses
system.l2.overall_accesses::.cpu.data           29808                       # number of overall (read+write) accesses
system.l2.overall_accesses::total               30153                       # number of overall (read+write) accesses
system.l2.demand_miss_rate::.cpu.inst        0.973913                       # miss rate for demand accesses
system.l2.demand_miss_rate::.cpu.data        0.663614                       # miss rate for demand accesses
system.l2.demand_miss_rate::total            0.667164                       # miss rate for demand accesses
system.l2.overall_miss_rate::.cpu.inst       0.973913                       # miss rate for overall accesses
system.l2.overall_miss_rate::.cpu.data       0.663614                       # miss rate for overall accesses
system.l2.overall_miss_rate::total           0.667164                       # miss rate for overall accesses
system.l2.demand_avg_miss_latency::.cpu.inst 82782.738095                       # average overall miss latency
system.l2.demand_avg_miss_latency::.cpu.data 87090.870027                       # average overall miss latency
system.l2.demand_avg_miss_latency::total 87018.914351                       # average overall miss latency
system.l2.overall_avg_miss_latency::.cpu.inst 82782.738095                       # average overall miss latency
system.l2.overall_avg_miss_latency::.cpu.data 87090.870027                       # average overall miss latency
system.l2.overall_avg_miss_latency::total 87018.914351                       # average overall miss latency
system.l2.blocked_cycles::no_mshrs                  0                       # number of cycles access was blocked
system.l2.blocked_cycles::no_targets                0                       # number of cycles access was blocked
system.l2.blocked::no_mshrs                         0                       # number of cycles access was blocked
system.l2.blocked::no_targets                       0                       # number of cycles access was blocked
system.l2.avg_blocked_cycles::no_mshrs            nan                       # average number of cycles each access was blocked
system.l2.avg_blocked_cycles::no_targets          nan                       # average number of cycles each access was blocked
system.l2.writebacks::.writebacks                3316                       # number of writebacks
system.l2.writebacks::total                      3316                       # number of writebacks
system.l2.demand_mshr_hits::.cpu.data               4                       # number of demand (read+write) MSHR hits
system.l2.demand_mshr_hits::total                   4                       # number of demand (read+write) MSHR hits
system.l2.overall_mshr_hits::.cpu.data              4                       # number of overall MSHR hits
system.l2.overall_mshr_hits::total                  4                       # number of overall MSHR hits
system.l2.demand_mshr_misses::.cpu.inst           336                       # number of demand (read+write) MSHR misses
system.l2.demand_mshr_misses::.cpu.data         19777                       # number of demand (read+write) MSHR misses
system.l2.demand_mshr_misses::total             20113                       # number of demand (read+write) MSHR misses
system.l2.overall_mshr_misses::.cpu.inst          336                       # number of overall MSHR misses
system.l2.overall_mshr_misses::.cpu.data        19777                       # number of overall MSHR misses
system.l2.overall_mshr_misses::total            20113                       # number of overall MSHR misses
system.l2.demand_mshr_miss_latency::.cpu.inst     24455000                       # number of demand (read+write) MSHR miss cycles
system.l2.demand_mshr_miss_latency::.cpu.data   1524699000                       # number of demand (read+write) MSHR miss cycles
system.l2.demand_mshr_miss_latency::total   1549154000                       # number of demand (read+write) MSHR miss cycles
system.l2.overall_mshr_miss_latency::.cpu.inst     24455000                       # number of overall MSHR miss cycles
system.l2.overall_mshr_miss_latency::.cpu.data   1524699000                       # number of overall MSHR miss cycles
system.l2.overall_mshr_miss_latency::total   1549154000                       # number of overall MSHR miss cycles
system.l2.demand_mshr_miss_rate::.cpu.inst     0.973913                       # mshr miss rate for demand accesses
system.l2.demand_mshr_miss_rate::.cpu.data     0.663480                       # mshr miss rate for demand accesses
system.l2.demand_mshr_miss_rate::total       0.667031                       # mshr miss rate for demand accesses
system.l2.overall_mshr_miss_rate::.cpu.inst     0.973913                       # mshr miss rate for overall accesses
system.l2.overall_mshr_miss_rate::.cpu.data     0.663480                       # mshr miss rate for overall accesses
system.l2.overall_mshr_miss_rate::total      0.667031                       # mshr miss rate for overall accesses
system.l2.demand_avg_mshr_miss_latency::.cpu.inst 72782.738095                       # average overall mshr miss latency
system.l2.demand_avg_mshr_miss_latency::.cpu.data 77094.554280                       # average overall mshr miss latency
system.l2.demand_avg_mshr_miss_latency::total 77022.522746                       # average overall mshr miss latency
system.l2.overall_avg_mshr_miss_latency::.cpu.inst 72782.738095                       # average overall mshr miss latency
system.l2.overall_avg_mshr_miss_latency::.cpu.data 77094.554280                       # average overall mshr miss latency
system.l2.overall_avg_mshr_miss_latency::total 77022.522746                       # average overall mshr miss latency
system.l2.replacements                           3729                       # number of replacements
system.l2.WritebackDirty_hits::.writebacks        28263                       # number of WritebackDirty hits
system.l2.WritebackDirty_hits::total            28263                       # number of WritebackDirty hits
system.l2.WritebackDirty_accesses::.writebacks        28263                       # number of WritebackDirty accesses(hits+misses)
system.l2.WritebackDirty_accesses::total        28263                       # number of WritebackDirty accesses(hits+misses)
system.l2.ReadExReq_misses::.cpu.data           19412                       # number of ReadExReq misses
system.l2.ReadExReq_misses::total               19412                       # number of ReadExReq misses
system.l2.ReadExReq_miss_latency::.cpu.data   1688181000                       # number of ReadExReq miss cycles
system.l2.ReadExReq_miss_latency::total    1688181000                       # number of ReadExReq miss cycles
system.l2.ReadExReq_accesses::.cpu.data         19412                       # number of ReadExReq accesses(hits+misses)
system.l2.ReadExReq_accesses::total             19412                       # number of ReadExReq accesses(hits+misses)
system.l2.ReadExReq_miss_rate::.cpu.data            1                       # miss rate for ReadExReq accesses
system.l2.ReadExReq_miss_rate::total                1                       # miss rate for ReadExReq accesses
system.l2.ReadExReq_avg_miss_latency::.cpu.data 86965.845869                       # average ReadExReq miss latency
system.l2.ReadExReq_avg_miss_latency::total 86965.845869                       # average ReadExReq miss latency
system.l2.ReadExReq_mshr_misses::.cpu.data        19412                       # number of ReadExReq MSHR misses
system.l2.ReadExReq_mshr_misses::total          19412                       # number of ReadExReq MSHR misses
system.l2.ReadExReq_mshr_miss_latency::.cpu.data   1494061000                       # number of ReadExReq MSHR miss cycles
system.l2.ReadExReq_mshr_miss_latency::total   1494061000                       # number of ReadExReq MSHR miss cycles
system.l2.ReadExReq_mshr_miss_rate::.cpu.data            1                       # mshr miss rate for ReadExReq accesses
system.l2.ReadExReq_mshr_miss_rate::total            1                       # mshr miss rate for ReadExReq accesses
system.l2.ReadExReq_avg_mshr_miss_latency::.cpu.data 76965.845869                       # average ReadExReq mshr miss latency
system.l2.ReadExReq_avg_mshr_miss_latency::total 76965.845869                       # average ReadExReq mshr miss latency
system.l2.ReadCleanReq_hits::.cpu.inst              9                       # number of ReadCleanReq hits
system.l2.ReadCleanReq_hits::total                  9                       # number of ReadCleanReq hits
system.l2.ReadCleanReq_misses::.cpu.inst          336                       # number of ReadCleanReq misses
system.l2.ReadCleanReq_misses::total              336                       # number of ReadCleanReq misses
system.l2.ReadCleanReq_miss_latency::.cpu.inst     27815000                       # number of ReadCleanReq miss cycles
system.l2.ReadCleanReq_miss_latency::total     27815000                       # number of ReadCleanReq miss cycles
system.l2.ReadCleanReq_accesses::.cpu.inst          345                       # number of ReadCleanReq accesses(hits+misses)
system.l2.ReadCleanReq_accesses::total            345                       # number of ReadCleanReq accesses(hits+misses)
system.l2.ReadCleanReq_miss_rate::.cpu.inst     0.973913                       # miss rate for ReadCleanReq accesses
system.l2.ReadCleanReq_miss_rate::total      0.973913                       # miss rate for ReadCleanReq accesses
system.l2.ReadCleanReq_avg_miss_latency::.cpu.inst 82782.738095                       # average ReadCleanReq miss latency
system.l2.ReadCleanReq_avg_miss_latency::total 82782.738095                       # average ReadCleanReq miss latency
system.l2.ReadCleanReq_mshr_misses::.cpu.inst          336                       # number of ReadCleanReq MSHR misses
system.l2.ReadCleanReq_mshr_misses::total          336                       # number of ReadCleanReq MSHR misses
system.l2.ReadCleanReq_mshr_miss_latency::.cpu.inst     24455000                       # number of ReadCleanReq MSHR miss cycles
system.l2.ReadCleanReq_mshr_miss_latency::total     24455000                       # number of ReadCleanReq MSHR miss cycles
system.l2.ReadCleanReq_mshr_miss_rate::.cpu.inst     0.973913                       # mshr miss rate for ReadCleanReq accesses
system.l2.ReadCleanReq_mshr_miss_rate::total     0.973913                       # mshr miss rate for ReadCleanReq accesses
system.l2.ReadCleanReq_avg_mshr_miss_latency::.cpu.inst 72782.738095                       # average ReadCleanReq mshr miss latency
system.l2.ReadCleanReq_avg_mshr_miss_latency::total 72782.738095                       # average ReadCleanReq mshr miss latency
system.l2.ReadSharedReq_hits::.cpu.data         10027                       # number of ReadSharedReq hits
system.l2.ReadSharedReq_hits::total             10027                       # number of ReadSharedReq hits
system.l2.ReadSharedReq_misses::.cpu.data          369                       # number of ReadSharedReq misses
system.l2.ReadSharedReq_misses::total             369                       # number of ReadSharedReq misses
system.l2.ReadSharedReq_miss_latency::.cpu.data     34563500                       # number of ReadSharedReq miss cycles
system.l2.ReadSharedReq_miss_latency::total     34563500                       # number of ReadSharedReq miss cycles
system.l2.ReadSharedReq_accesses::.cpu.data        10396                       # number of ReadSharedReq accesses(hits+misses)
system.l2.ReadSharedReq_accesses::total         10396                       # number of ReadSharedReq accesses(hits+misses)
system.l2.ReadSharedReq_miss_rate::.cpu.data     0.035494                       # miss rate for ReadSharedReq accesses
system.l2.ReadSharedReq_miss_rate::total     0.035494                       # miss rate for ReadSharedReq accesses
system.l2.ReadSharedReq_avg_miss_latency::.cpu.data 93668.021680                       # average ReadSharedReq miss latency
system.l2.ReadSharedReq_avg_miss_latency::total 93668.021680                       # average ReadSharedReq miss latency
system.l2.ReadSharedReq_mshr_hits::.cpu.data            4                       # number of ReadSharedReq MSHR hits
system.l2.ReadSharedReq_mshr_hits::total            4                       # number of ReadSharedReq MSHR hits
system.l2.ReadSharedReq_mshr_misses::.cpu.data          365                       # number of ReadSharedReq MSHR misses
system.l2.ReadSharedReq_mshr_misses::total          365                       # number of ReadSharedReq MSHR misses
system.l2.ReadSharedReq_mshr_miss_latency::.cpu.data     30638000                       # number of ReadSharedReq MSHR miss cycles
system.l2.ReadSharedReq_mshr_miss_latency::total     30638000                       # number of ReadSharedReq MSHR miss cycles
system.l2.ReadSharedReq_mshr_miss_rate::.cpu.data     0.035110                       # mshr miss rate for ReadSharedReq accesses
system.l2.ReadSharedReq_mshr_miss_rate::total     0.035110                       # mshr miss rate for ReadSharedReq accesses
system.l2.ReadSharedReq_avg_mshr_miss_latency::.cpu.data 83939.726027                       # average ReadSharedReq mshr miss latency
system.l2.ReadSharedReq_avg_mshr_miss_latency::total 83939.726027                       # average ReadSharedReq mshr miss latency
system.l2.tags.pwrStateResidencyTicks::UNDEFINED  56158407500                       # Cumulative time (in ticks) in various power states
system.l2.tags.tagsinuse                 13268.425564                       # Cycle average of tags in use
system.l2.tags.total_refs                       58911                       # Total number of references to valid blocks.
system.l2.tags.sampled_refs                     20113                       # Sample count of references to valid blocks.
system.l2.tags.avg_refs                      2.929001                       # Average number of references to valid blocks.
system.l2.tags.warmup_cycle                     82000                       # Cycle when the warmup percentage was hit.
system.l2.tags.occ_blocks::.cpu.inst       221.477297                       # Average occupied blocks per requestor
system.l2.tags.occ_blocks::.cpu.data     13046.948266                       # Average occupied blocks per requestor
system.l2.tags.occ_percent::.cpu.inst        0.013518                       # Average percentage of cache occupancy
system.l2.tags.occ_percent::.cpu.data        0.796323                       # Average percentage of cache occupancy
system.l2.tags.occ_percent::total            0.809840                       # Average percentage of cache occupancy
system.l2.tags.occ_task_id_blocks::1024         16384                       # Occupied blocks per task id
system.l2.tags.age_task_id_blocks_1024::0            2                       # Occupied blocks per task id
system.l2.tags.age_task_id_blocks_1024::1           17                       # Occupied blocks per task id
system.l2.tags.age_task_id_blocks_1024::2          224                       # Occupied blocks per task id
system.l2.tags.age_task_id_blocks_1024::3         1922                       # Occupied blocks per task id
system.l2.tags.age_task_id_blocks_1024::4        14219                       # Occupied blocks per task id
system.l2.tags.occ_task_id_percent::1024            1                       # Percentage of cache occupancy per task id
system.l2.tags.tag_accesses                    962753                       # Number of tag accesses
system.l2.tags.data_accesses                   962753                       # Number of data accesses
system.cpu_voltage_domain.voltage                   1                       # Voltage in Volts
system.mem_ctrls.pwrStateResidencyTicks::UNDEFINED  56158407500                       # Cumulative time (in ticks) in various power states
system.mem_ctrls.bytes_read::.cpu.inst          43008                       # Number of bytes read from this memory
system.mem_ctrls.bytes_read::.cpu.data        2531456                       # Number of bytes read from this memory
system.mem_ctrls.bytes_read::total            2574464                       # Number of bytes read from this memory
system.mem_ctrls.bytes_inst_read::.cpu.inst        43008                       # Number of instructions bytes read from this memory
system.mem_ctrls.bytes_inst_read::total         43008                       # Number of instructions bytes read from this memory
system.mem_ctrls.bytes_written::.writebacks       424448                       # Number of bytes written to this memory
system.mem_ctrls.bytes_written::total          424448                       # Number of bytes written to this memory
system.mem_ctrls.num_reads::.cpu.inst             336                       # Number of read requests responded to by this memory
system.mem_ctrls.num_reads::.cpu.data           19777                       # Number of read requests responded to by this memory
system.mem_ctrls.num_reads::total               20113                       # Number of read requests responded to by this memory
system.mem_ctrls.num_writes::.writebacks         3316                       # Number of write requests responded to by this memory
system.mem_ctrls.num_writes::total               3316                       # Number of write requests responded to by this memory
system.mem_ctrls.bw_read::.cpu.inst            765834                       # Total read bandwidth from this memory (bytes/s)
system.mem_ctrls.bw_read::.cpu.data          45077062                       # Total read bandwidth from this memory (bytes/s)
system.mem_ctrls.bw_read::total              45842895                       # Total read bandwidth from this memory (bytes/s)
system.mem_ctrls.bw_inst_read::.cpu.inst       765834                       # Instruction read bandwidth from this memory (bytes/s)
system.mem_ctrls.bw_inst_read::total           765834                       # Instruction read bandwidth from this memory (bytes/s)
system.mem_ctrls.bw_write::.writebacks        7558049                       # Write bandwidth from this memory (bytes/s)
system.mem_ctrls.bw_write::total              7558049                       # Write bandwidth from this memory (bytes/s)
system.mem_ctrls.bw_total::.writebacks        7558049                       # Total bandwidth to/from this memory (bytes/s)
system.mem_ctrls.bw_total::.cpu.inst           765834                       # Total bandwidth to/from this memory (bytes/s)
system.mem_ctrls.bw_total::.cpu.data         45077062                       # Total bandwidth to/from this memory (bytes/s)
system.mem_ctrls.bw_total::total             53400944                       # Total bandwidth to/from this memory (bytes/s)
system.mem_ctrls.avgPriority_.writebacks::samples      6632.00                       # Average QoS priority value for accepted requests
system.mem_ctrls.avgPriority_.cpu.inst::samples       672.00                       # Average QoS priority value for accepted requests
system.mem_ctrls.avgPriority_.cpu.data::samples     39552.00                       # Average QoS priority value for accepted requests
system.mem_ctrls.priorityMinLatency      0.000000018750                       # per QoS priority minimum request to response latency (s)
system.mem_ctrls.priorityMaxLatency      0.010419736250                       # per QoS priority maximum request to response latency (s)
system.mem_ctrls.numReadWriteTurnArounds          366                       # Number of turnarounds from READ to WRITE
system.mem_ctrls.numWriteReadTurnArounds          366                       # Number of turnarounds from WRITE to READ
system.mem_ctrls.numStayReadState               78046                       # Number of times bus staying in READ state
system.mem_ctrls.numStayWriteState               6253                       # Number of times bus staying in WRITE state
system.mem_ctrls.readReqs                       20113                       # Number of read requests accepted
system.mem_ctrls.writeReqs                       3316                       # Number of write requests accepted
system.mem_ctrls.readBursts                     40226                       # Number of DRAM read bursts, including those serviced by the write queue
system.mem_ctrls.writeBursts                     6632                       # Number of DRAM write bursts, including those merged in the write queue
system.mem_ctrls.servicedByWrQ                      2                       # Number of DRAM read bursts serviced by the write queue
system.mem_ctrls.mergedWrBursts                     0                       # Number of DRAM write bursts merged with an existing one
system.mem_ctrls.neitherReadNorWriteReqs            0                       # Number of requests that are neither read nor write
system.mem_ctrls.perBankRdBursts::0              2494                       # Per bank write bursts
system.mem_ctrls.perBankRdBursts::1              2384                       # Per bank write bursts
system.mem_ctrls.perBankRdBursts::2              2366                       # Per bank write bursts
system.mem_ctrls.perBankRdBursts::3              2654                       # Per bank write bursts
system.mem_ctrls.perBankRdBursts::4              2710                       # Per bank write bursts
system.mem_ctrls.perBankRdBursts::5              2472                       # Per bank write bursts
system.mem_ctrls.perBankRdBursts::6              2456                       # Per bank write bursts
system.mem_ctrls.perBankRdBursts::7              2490                       # Per bank write bursts
system.mem_ctrls.perBankRdBursts::8              2480                       # Per bank write bursts
system.mem_ctrls.perBankRdBursts::9              2526                       # Per bank write bursts
system.mem_ctrls.perBankRdBursts::10             2518                       # Per bank write bursts
system.mem_ctrls.perBankRdBursts::11             2536                       # Per bank write bursts
system.mem_ctrls.perBankRdBursts::12             2544                       # Per bank write bursts
system.mem_ctrls.perBankRdBursts::13             2488                       # Per bank write bursts
system.mem_ctrls.perBankRdBursts::14             2590                       # Per bank write bursts
system.mem_ctrls.perBankRdBursts::15             2516                       # Per bank write bursts
system.mem_ctrls.perBankWrBursts::0               355                       # Per bank write bursts
system.mem_ctrls.perBankWrBursts::1               296                       # Per bank write bursts
system.mem_ctrls.perBankWrBursts::2               294                       # Per bank write bursts
system.mem_ctrls.perBankWrBursts::3               484                       # Per bank write bursts
system.mem_ctrls.perBankWrBursts::4               616                       # Per bank write bursts
system.mem_ctrls.perBankWrBursts::5               422                       # Per bank write bursts
system.mem_ctrls.perBankWrBursts::6               408                       # Per bank write bursts
system.mem_ctrls.perBankWrBursts::7               406                       # Per bank write bursts
system.mem_ctrls.perBankWrBursts::8               404                       # Per bank write bursts
system.mem_ctrls.perBankWrBursts::9               410                       # Per bank write bursts
system.mem_ctrls.perBankWrBursts::10              420                       # Per bank write bursts
system.mem_ctrls.perBankWrBursts::11              404                       # Per bank write bursts
system.mem_ctrls.perBankWrBursts::12              412                       # Per bank write bursts
system.mem_ctrls.perBankWrBursts::13              410                       # Per bank write bursts
system.mem_ctrls.perBankWrBursts::14              446                       # Per bank write bursts
system.mem_ctrls.perBankWrBursts::15              418                       # Per bank write bursts
system.mem_ctrls.avgRdQLen                       2.01                       # Average read queue length when enqueuing
system.mem_ctrls.avgWrQLen                      11.07                       # Average write queue length when enqueuing
system.mem_ctrls.totQLat                    588877250                       # Total ticks spent queuing
system.mem_ctrls.totBusLat                  201120000                       # Total ticks spent in databus transfers
system.mem_ctrls.totMemAccLat              1343077250                       # Total ticks spent from burst creation until serviced by the DRAM
system.mem_ctrls.avgQLat                     14639.95                       # Average queueing delay per DRAM burst
system.mem_ctrls.avgBusLat                    5000.00                       # Average bus latency per DRAM burst
system.mem_ctrls.avgMemAccLat                33389.95                       # Average memory access latency per DRAM burst
system.mem_ctrls.numRdRetry                         0                       # Number of times read queue was full causing retry
system.mem_ctrls.numWrRetry                         0                       # Number of times write queue was full causing retry
system.mem_ctrls.readRowHits                    30092                       # Number of row buffer hits during reads
system.mem_ctrls.writeRowHits                    5600                       # Number of row buffer hits during writes
system.mem_ctrls.readRowHitRate                 74.81                       # Row buffer hit rate for reads
system.mem_ctrls.writeRowHitRate                84.44                       # Row buffer hit rate for writes
system.mem_ctrls.readPktSize::0                     0                       # Read request sizes (log2)
system.mem_ctrls.readPktSize::1                     0                       # Read request sizes (log2)
system.mem_ctrls.readPktSize::2                     0                       # Read request sizes (log2)
system.mem_ctrls.readPktSize::3                     0                       # Read request sizes (log2)
system.mem_ctrls.readPktSize::4                     0                       # Read request sizes (log2)
system.mem_ctrls.readPktSize::5                     0                       # Read request sizes (log2)
system.mem_ctrls.readPktSize::6                 40226                       # Read request sizes (log2)
system.mem_ctrls.writePktSize::0                    0                       # Write request sizes (log2)
system.mem_ctrls.writePktSize::1                    0                       # Write request sizes (log2)
system.mem_ctrls.writePktSize::2                    0                       # Write request sizes (log2)
system.mem_ctrls.writePktSize::3                    0                       # Write request sizes (log2)
system.mem_ctrls.writePktSize::4                    0                       # Write request sizes (log2)
system.mem_ctrls.writePktSize::5                    0                       # Write request sizes (log2)
system.mem_ctrls.writePktSize::6                 6632                       # Write request sizes (log2)
system.mem_ctrls.rdQLenPdf::0                   19997                       # What read queue length does an incoming req see
system.mem_ctrls.rdQLenPdf::1                   20005                       # What read queue length does an incoming req see
system.mem_ctrls.rdQLenPdf::2                     112                       # What read queue length does an incoming req see
system.mem_ctrls.rdQLenPdf::3                     105                       # What read queue length does an incoming req see
system.mem_ctrls.rdQLenPdf::4                       3                       # What read queue length does an incoming req see
system.mem_ctrls.rdQLenPdf::5                       2                       # What read queue length does an incoming req see
system.mem_ctrls.rdQLenPdf::6                       0                       # What read queue length does an incoming req see
system.mem_ctrls.rdQLenPdf::7                       0                       # What read queue length does an incoming req see
system.mem_ctrls.rdQLenPdf::8                       0                       # What read queue length does an incoming req see
system.mem_ctrls.rdQLenPdf::9                       0                       # What read queue length does an incoming req see
system.mem_ctrls.rdQLenPdf::10                      0                       # What read queue length does an incoming req see
system.mem_ctrls.rdQLenPdf::11                      0                       # What read queue length does an incoming req see
system.mem_ctrls.rdQLenPdf::12                      0                       # What read queue length does an incoming req see
system.mem_ctrls.rdQLenPdf::13                      0                       # What read queue length does an incoming req see
system.mem_ctrls.rdQLenPdf::14                      0                       # What read queue length does an incoming req see
system.mem_ctrls.rdQLenPdf::15                      0                       # What read queue length does an incoming req see
system.mem_ctrls.rdQLenPdf::16                      0                       # What read queue length does an incoming req see
system.mem_ctrls.rdQLenPdf::17                      0                       # What read queue length does an incoming req see
system.mem_ctrls.rdQLenPdf::18                      0                       # What read queue length does an incoming req see
system.mem_ctrls.rdQLenPdf::19                      0                       # What read queue length does an incoming req see
system.mem_ctrls.rdQLenPdf::20                      0                       # What read queue length does an incoming req see
system.mem_ctrls.rdQLenPdf::21                      0                       # What read queue length does an incoming req see
system.mem_ctrls.rdQLenPdf::22                      0                       # What read queue length does an incoming req see
system.mem_ctrls.rdQLenPdf::23                      0                       # What read queue length does an incoming req see
system.mem_ctrls.rdQLenPdf::24                      0                       # What read queue length does an incoming req see
system.mem_ctrls.rdQLenPdf::25                      0                       # What read queue length does an incoming req see
system.mem_ctrls.rdQLenPdf::26                      0                       # What read queue length does an incoming req see
system.mem_ctrls.rdQLenPdf::27                      0                       # What read queue length does an incoming req see
system.mem_ctrls.rdQLenPdf::28                      0                       # What read queue length does an incoming req see
system.mem_ctrls.rdQLenPdf::29                      0                       # What read queue length does an incoming req see
system.mem_ctrls.rdQLenPdf::30                      0                       # What read queue length does an incoming req see
system.mem_ctrls.rdQLenPdf::31                      0                       # What read queue length does an incoming req see
system.mem_ctrls.wrQLenPdf::0                       1                       # What write queue length does an incoming req see
system.mem_ctrls.wrQLenPdf::1                       1                       # What write queue length does an incoming req see
system.mem_ctrls.wrQLenPdf::2                       1                       # What write queue length does an incoming req see
system.mem_ctrls.wrQLenPdf::3                       1                       # What write queue length does an incoming req see
system.mem_ctrls.wrQLenPdf::4                       1                       # What write queue length does an incoming req see
system.mem_ctrls.wrQLenPdf::5                       1                       # What write queue length does an incoming req see
system.mem_ctrls.wrQLenPdf::6                       1                       # What write queue length does an incoming req see
system.mem_ctrls.wrQLenPdf::7                       1                       # What write queue length does an incoming req see
system.mem_ctrls.wrQLenPdf::8                       1                       # What write queue length does an incoming req see
system.mem_ctrls.wrQLenPdf::9                       1                       # What write queue length does an incoming req see
system.mem_ctrls.wrQLenPdf::10                      1                       # What write queue length does an incoming req see
system.mem_ctrls.wrQLenPdf::11                      1                       # What write queue length does an incoming req see
system.mem_ctrls.wrQLenPdf::12                      1                       # What write queue length does an incoming req see
system.mem_ctrls.wrQLenPdf::13                      1                       # What write queue length does an incoming req see
system.mem_ctrls.wrQLenPdf::14                      1                       # What write queue length does an incoming req see
system.mem_ctrls.wrQLenPdf::15                    367                       # What write queue length does an incoming req see
system.mem_ctrls.wrQLenPdf::16                    367                       # What write queue length does an incoming req see
system.mem_ctrls.wrQLenPdf::17                    367                       # What write queue length does an incoming req see
system.mem_ctrls.wrQLenPdf::18                    367                       # What write queue length does an incoming req see
system.mem_ctrls.wrQLenPdf::19                    367                       # What write queue length does an incoming req see
system.mem_ctrls.wrQLenPdf::20                    367                       # What write queue length does an incoming req see
system.mem_ctrls.wrQLenPdf::21                    367                       # What write queue length does an incoming req see
system.mem_ctrls.wrQLenPdf::22                    367                       # What write queue length does an incoming req see
system.mem_ctrls.wrQLenPdf::23                    367                       # What write queue length does an incoming req see
system.mem_ctrls.wrQLenPdf::24                    369                       # What write queue length does an incoming req see
system.mem_ctrls.wrQLenPdf::25                    369                       # What write queue length does an incoming req see
system.mem_ctrls.wrQLenPdf::26                    370                       # What write queue length does an incoming req see
system.mem_ctrls.wrQLenPdf::27                    370                       # What write queue length does an incoming req see
system.mem_ctrls.wrQLenPdf::28                    369                       # What write queue length does an incoming req see
system.mem_ctrls.wrQLenPdf::29                    368                       # What write queue length does an incoming req see
system.mem_ctrls.wrQLenPdf::30                    366                       # What write queue length does an incoming req see
system.mem_ctrls.wrQLenPdf::31                    366                       # What write queue length does an incoming req see
system.mem_ctrls.wrQLenPdf::32                    366                       # What write queue length does an incoming req see
system.mem_ctrls.wrQLenPdf::33                      1                       # What write queue length does an incoming req see
system.mem_ctrls.wrQLenPdf::34                      0                       # What write queue length does an incoming req see
system.mem_ctrls.wrQLenPdf::35                      0                       # What write queue length does an incoming req see
system.mem_ctrls.wrQLenPdf::36                      0                       # What write queue length does an incoming req see
system.mem_ctrls.wrQLenPdf::37                      0                       # What write queue length does an incoming req see
system.mem_ctrls.wrQLenPdf::38                      0                       # What write queue length does an incoming req see
system.mem_ctrls.wrQLenPdf::39                      0                       # What write queue length does an incoming req see
system.mem_ctrls.wrQLenPdf::40                      0                       # What write queue length does an incoming req see
system.mem_ctrls.wrQLenPdf::41                      0                       # What write queue length does an incoming req see
system.mem_ctrls.wrQLenPdf::42                      0                       # What write queue length does an incoming req see
system.mem_ctrls.wrQLenPdf::43                      0                       # What write queue length does an incoming req see
system.mem_ctrls.wrQLenPdf::44                      0                       # What write queue length does an incoming req see
system.mem_ctrls.wrQLenPdf::45                      0                       # What write queue length does an incoming req see
system.mem_ctrls.wrQLenPdf::46                      0                       # What write queue length does an incoming req see
system.mem_ctrls.wrQLenPdf::47                      0                       # What write queue length does an incoming req see
system.mem_ctrls.wrQLenPdf::48                      0                       # What write queue length does an incoming req see
system.mem_ctrls.wrQLenPdf::49                      0                       # What write queue length does an incoming req see
system.mem_ctrls.wrQLenPdf::50                      0                       # What write queue length does an incoming req see
system.mem_ctrls.wrQLenPdf::51                      0                       # What write queue length does an incoming req see
system.mem_ctrls.wrQLenPdf::52                      0                       # What write queue length does an incoming req see
system.mem_ctrls.wrQLenPdf::53                      0                       # What write queue length does an incoming req see
system.mem_ctrls.wrQLenPdf::54                      0                       # What write queue length does an incoming req see
system.mem_ctrls.wrQLenPdf::55                      0                       # What write queue length does an incoming req see
system.mem_ctrls.wrQLenPdf::56                      0                       # What write queue length does an incoming req see
system.mem_ctrls.wrQLenPdf::57                      0                       # What write queue length does an incoming req see
system.mem_ctrls.wrQLenPdf::58                      0                       # What write queue length does an incoming req see
system.mem_ctrls.wrQLenPdf::59                      0                       # What write queue length does an incoming req see
system.mem_ctrls.wrQLenPdf::60                      0                       # What write queue length does an incoming req see
system.mem_ctrls.wrQLenPdf::61                      0                       # What write queue length does an incoming req see
system.mem_ctrls.wrQLenPdf::62                      0                       # What write queue length does an incoming req see
system.mem_ctrls.wrQLenPdf::63                      0                       # What write queue length does an incoming req see
system.mem_ctrls.bytesPerActivate::samples        11136                       # Bytes accessed per row activation
system.mem_ctrls.bytesPerActivate::mean    269.120690                       # Bytes accessed per row activation
system.mem_ctrls.bytesPerActivate::gmean   225.404999                       # Bytes accessed per row activation
system.mem_ctrls.bytesPerActivate::stdev   182.154726                       # Bytes accessed per row activation
system.mem_ctrls.bytesPerActivate::0-127           73      0.66%      0.66% # Bytes accessed per row activation
system.mem_ctrls.bytesPerActivate::128-255         4589     41.21%     41.86% # Bytes accessed per row activation
system.mem_ctrls.bytesPerActivate::256-383         3695     33.18%     75.04% # Bytes accessed per row activation
system.mem_ctrls.bytesPerActivate::384-511         1521     13.66%     88.70% # Bytes accessed per row activation
system.mem_ctrls.bytesPerActivate::512-639          283      2.54%     91.24% # Bytes accessed per row activation
system.mem_ctrls.bytesPerActivate::640-767          622      5.59%     96.83% # Bytes accessed per row activation
system.mem_ctrls.bytesPerActivate::768-895          142      1.28%     98.11% # Bytes accessed per row activation
system.mem_ctrls.bytesPerActivate::896-1023           55      0.49%     98.60% # Bytes accessed per row activation
system.mem_ctrls.bytesPerActivate::1024-1151          156      1.40%    100.00% # Bytes accessed per row activation
system.mem_ctrls.bytesPerActivate::total        11136                       # Bytes accessed per row activation
system.mem_ctrls.rdPerTurnAround::samples          366                       # Reads before turning the bus around for writes
system.mem_ctrls.rdPerTurnAround::mean     109.868852                       # Reads before turning the bus around for writes
system.mem_ctrls.rdPerTurnAround::gmean     19.437967                       # Reads before turning the bus around for writes
system.mem_ctrls.rdPerTurnAround::stdev   1570.664309                       # Reads before turning the bus around for writes
system.mem_ctrls.rdPerTurnAround::0-1023          363     99.18%     99.18% # Reads before turning the bus around for writes
system.mem_ctrls.rdPerTurnAround::1024-2047            2      0.55%     99.73% # Reads before turning the bus around for writes
system.mem_ctrls.rdPerTurnAround::29696-30719            1      0.27%    100.00% # Reads before turning the bus around for writes
system.mem_ctrls.rdPerTurnAround::total           366                       # Reads before turning the bus around for writes
system.mem_ctrls.wrPerTurnAround::samples          366                       # Writes before turning the bus around for reads
system.mem_ctrls.wrPerTurnAround::mean      18.046448                       # Writes before turning the bus around for reads
system.mem_ctrls.wrPerTurnAround::gmean     18.044166                       # Writes before turning the bus around for reads
system.mem_ctrls.wrPerTurnAround::stdev      0.297065                       # Writes before turning the bus around for reads
system.mem_ctrls.wrPerTurnAround::18              357     97.54%     97.54% # Writes before turning the bus around for reads
system.mem_ctrls.wrPerTurnAround::19                1      0.27%     97.81% # Writes before turning the bus around for reads
system.mem_ctrls.wrPerTurnAround::20                8      2.19%    100.00% # Writes before turning the bus around for reads
system.mem_ctrls.wrPerTurnAround::total           366                       # Writes before turning the bus around for reads
system.mem_ctrls.bytesReadDRAM                2574336                       # Total number of bytes read from DRAM
system.mem_ctrls.bytesReadWrQ                     128                       # Total number of bytes read from write queue
system.mem_ctrls.bytesWritten                  422720                       # Total number of bytes written to DRAM
system.mem_ctrls.bytesReadSys                 2574464                       # Total read bytes from the system interface side
system.mem_ctrls.bytesWrittenSys               424448                       # Total written bytes from the system interface side
[...]
system.cpu.icache.ReadReq_avg_miss_latency::total 83463.768116                       # average ReadReq miss latency
system.cpu.icache.ReadReq_mshr_misses::.cpu.inst          345                       # number of ReadReq MSHR misses
system.cpu.icache.ReadReq_mshr_misses::total          345                       # number of ReadReq MSHR misses
system.cpu.icache.ReadReq_mshr_miss_latency::.cpu.inst     28450000                       # number of ReadReq MSHR miss cycles
system.cpu.icache.ReadReq_mshr_miss_latency::total     28450000                       # number of ReadReq MSHR miss cycles
system.cpu.icache.ReadReq_mshr_miss_rate::.cpu.inst     0.000013                       # mshr miss rate for ReadReq accesses
system.cpu.icache.ReadReq_mshr_miss_rate::total     0.000013                       # mshr miss rate for ReadReq accesses
system.cpu.icache.ReadReq_avg_mshr_miss_latency::.cpu.inst 82463.768116                       # average ReadReq mshr miss latency
system.cpu.icache.ReadReq_avg_mshr_miss_latency::total 82463.768116                       # average ReadReq mshr miss latency
system.cpu.icache.tags.pwrStateResidencyTicks::UNDEFINED  56158407500                       # Cumulative time (in ticks) in various power states
system.cpu.icache.tags.tagsinuse           344.479415                       # Cycle average of tags in use
system.cpu.icache.tags.total_refs            27157843                       # Total number of references to valid blocks.
system.cpu.icache.tags.sampled_refs               345                       # Sample count of references to valid blocks.
system.cpu.icache.tags.avg_refs          78718.385507                       # Average number of references to valid blocks.
system.cpu.icache.tags.warmup_cycle             92500                       # Cycle when the warmup percentage was hit.
system.cpu.icache.tags.occ_blocks::.cpu.inst   344.479415                       # Average occupied blocks per requestor
system.cpu.icache.tags.occ_percent::.cpu.inst     0.336406                       # Average percentage of cache occupancy
system.cpu.icache.tags.occ_percent::total     0.336406                       # Average percentage of cache occupancy
system.cpu.icache.tags.occ_task_id_blocks::1024          345                       # Occupied blocks per task id
system.cpu.icache.tags.age_task_id_blocks_1024::4          345                       # Occupied blocks per task id
system.cpu.icache.tags.occ_task_id_percent::1024     0.336914                       # Percentage of cache occupancy per task id
system.cpu.icache.tags.tag_accesses         217263089                       # Number of tag accesses
system.cpu.icache.tags.data_accesses        217263089                       # Number of data accesses
system.cpu.dtb.walker.pwrStateResidencyTicks::UNDEFINED  56158407500                       # Cumulative time (in ticks) in various power states
system.cpu.dtb.stage2_mmu.stage2_tlb.walker.pwrStateResidencyTicks::UNDEFINED  56158407500                       # Cumulative time (in ticks) in various power states
system.cpu.dcache.pwrStateResidencyTicks::UNDEFINED  56158407500                       # Cumulative time (in ticks) in various power states
system.cpu.dcache.demand_hits::.cpu.data     34798411                       # number of demand (read+write) hits
system.cpu.dcache.demand_hits::total         34798411                       # number of demand (read+write) hits
system.cpu.dcache.overall_hits::.cpu.data     34801749                       # number of overall hits
system.cpu.dcache.overall_hits::total        34801749                       # number of overall hits
system.cpu.dcache.demand_misses::.cpu.data        38518                       # number of demand (read+write) misses
system.cpu.dcache.demand_misses::total          38518                       # number of demand (read+write) misses
system.cpu.dcache.overall_misses::.cpu.data        38541                       # number of overall misses
system.cpu.dcache.overall_misses::total         38541                       # number of overall misses
system.cpu.dcache.demand_miss_latency::.cpu.data   2507522000                       # number of demand (read+write) miss cycles
system.cpu.dcache.demand_miss_latency::total   2507522000                       # number of demand (read+write) miss cycles
system.cpu.dcache.overall_miss_latency::.cpu.data   2507522000                       # number of overall miss cycles
system.cpu.dcache.overall_miss_latency::total   2507522000                       # number of overall miss cycles
system.cpu.dcache.demand_accesses::.cpu.data     34836929                       # number of demand (read+write) accesses
system.cpu.dcache.demand_accesses::total     34836929                       # number of demand (read+write) accesses
system.cpu.dcache.overall_accesses::.cpu.data     34840290                       # number of overall (read+write) accesses
system.cpu.dcache.overall_accesses::total     34840290                       # number of overall (read+write) accesses
system.cpu.dcache.demand_miss_rate::.cpu.data     0.001106                       # miss rate for demand accesses
system.cpu.dcache.demand_miss_rate::total     0.001106                       # miss rate for demand accesses
system.cpu.dcache.overall_miss_rate::.cpu.data     0.001106                       # miss rate for overall accesses
system.cpu.dcache.overall_miss_rate::total     0.001106                       # miss rate for overall accesses
system.cpu.dcache.demand_avg_miss_latency::.cpu.data 65100.005192                       # average overall miss latency
system.cpu.dcache.demand_avg_miss_latency::total 65100.005192                       # average overall miss latency
system.cpu.dcache.overall_avg_miss_latency::.cpu.data 65061.155652                       # average overall miss latency
system.cpu.dcache.overall_avg_miss_latency::total 65061.155652                       # average overall miss latency
system.cpu.dcache.blocked_cycles::no_mshrs            0                       # number of cycles access was blocked
system.cpu.dcache.blocked_cycles::no_targets            0                       # number of cycles access was blocked
system.cpu.dcache.blocked::no_mshrs                 0                       # number of cycles access was blocked
system.cpu.dcache.blocked::no_targets               0                       # number of cycles access was blocked
system.cpu.dcache.avg_blocked_cycles::no_mshrs          nan                       # average number of cycles each access was blocked
system.cpu.dcache.avg_blocked_cycles::no_targets          nan                       # average number of cycles each access was blocked
system.cpu.dcache.writebacks::.writebacks        28263                       # number of writebacks
system.cpu.dcache.writebacks::total             28263                       # number of writebacks
system.cpu.dcache.demand_mshr_hits::.cpu.data         8722                       # number of demand (read+write) MSHR hits
system.cpu.dcache.demand_mshr_hits::total         8722                       # number of demand (read+write) MSHR hits
system.cpu.dcache.overall_mshr_hits::.cpu.data         8722                       # number of overall MSHR hits
system.cpu.dcache.overall_mshr_hits::total         8722                       # number of overall MSHR hits
system.cpu.dcache.demand_mshr_misses::.cpu.data        29796                       # number of demand (read+write) MSHR misses
system.cpu.dcache.demand_mshr_misses::total        29796                       # number of demand (read+write) MSHR misses
system.cpu.dcache.overall_mshr_misses::.cpu.data        29808                       # number of overall MSHR misses
system.cpu.dcache.overall_mshr_misses::total        29808                       # number of overall MSHR misses
system.cpu.dcache.demand_mshr_miss_latency::.cpu.data   1872045500                       # number of demand (read+write) MSHR miss cycles
system.cpu.dcache.demand_mshr_miss_latency::total   1872045500                       # number of demand (read+write) MSHR miss cycles
system.cpu.dcache.overall_mshr_miss_latency::.cpu.data   1872757000                       # number of overall MSHR miss cycles
system.cpu.dcache.overall_mshr_miss_latency::total   1872757000                       # number of overall MSHR miss cycles
system.cpu.dcache.demand_mshr_miss_rate::.cpu.data     0.000855                       # mshr miss rate for demand accesses
system.cpu.dcache.demand_mshr_miss_rate::total     0.000855                       # mshr miss rate for demand accesses
system.cpu.dcache.overall_mshr_miss_rate::.cpu.data     0.000856                       # mshr miss rate for overall accesses
system.cpu.dcache.overall_mshr_miss_rate::total     0.000856                       # mshr miss rate for overall accesses
system.cpu.dcache.demand_avg_mshr_miss_latency::.cpu.data 62828.752182                       # average overall mshr miss latency
system.cpu.dcache.demand_avg_mshr_miss_latency::total 62828.752182                       # average overall mshr miss latency
system.cpu.dcache.overall_avg_mshr_miss_latency::.cpu.data 62827.328234                       # average overall mshr miss latency
system.cpu.dcache.overall_avg_mshr_miss_latency::total 62827.328234                       # average overall mshr miss latency
system.cpu.dcache.replacements                  28784                       # number of replacements
system.cpu.dcache.ReadReq_hits::.cpu.data     20615911                       # number of ReadReq hits
system.cpu.dcache.ReadReq_hits::total        20615911                       # number of ReadReq hits
system.cpu.dcache.ReadReq_misses::.cpu.data        10841                       # number of ReadReq misses
system.cpu.dcache.ReadReq_misses::total         10841                       # number of ReadReq misses
system.cpu.dcache.ReadReq_miss_latency::.cpu.data    177535500                       # number of ReadReq miss cycles
system.cpu.dcache.ReadReq_miss_latency::total    177535500                       # number of ReadReq miss cycles
system.cpu.dcache.ReadReq_accesses::.cpu.data     20626752                       # number of ReadReq accesses(hits+misses)
system.cpu.dcache.ReadReq_accesses::total     20626752                       # number of ReadReq accesses(hits+misses)
system.cpu.dcache.ReadReq_miss_rate::.cpu.data     0.000526                       # miss rate for ReadReq accesses
system.cpu.dcache.ReadReq_miss_rate::total     0.000526                       # miss rate for ReadReq accesses
system.cpu.dcache.ReadReq_avg_miss_latency::.cpu.data 16376.302924                       # average ReadReq miss latency
system.cpu.dcache.ReadReq_avg_miss_latency::total 16376.302924                       # average ReadReq miss latency
system.cpu.dcache.ReadReq_mshr_hits::.cpu.data          457                       # number of ReadReq MSHR hits
system.cpu.dcache.ReadReq_mshr_hits::total          457                       # number of ReadReq MSHR hits
system.cpu.dcache.ReadReq_mshr_misses::.cpu.data        10384                       # number of ReadReq MSHR misses
system.cpu.dcache.ReadReq_mshr_misses::total        10384                       # number of ReadReq MSHR misses
system.cpu.dcache.ReadReq_mshr_miss_latency::.cpu.data    154746000                       # number of ReadReq MSHR miss cycles
system.cpu.dcache.ReadReq_mshr_miss_latency::total    154746000                       # number of ReadReq MSHR miss cycles
system.cpu.dcache.ReadReq_mshr_miss_rate::.cpu.data     0.000503                       # mshr miss rate for ReadReq accesses
system.cpu.dcache.ReadReq_mshr_miss_rate::total     0.000503                       # mshr miss rate for ReadReq accesses
system.cpu.dcache.ReadReq_avg_mshr_miss_latency::.cpu.data 14902.349769                       # average ReadReq mshr miss latency
system.cpu.dcache.ReadReq_avg_mshr_miss_latency::total 14902.349769                       # average ReadReq mshr miss latency
system.cpu.dcache.WriteReq_hits::.cpu.data     14182500                       # number of WriteReq hits
system.cpu.dcache.WriteReq_hits::total       14182500                       # number of WriteReq hits
system.cpu.dcache.WriteReq_misses::.cpu.data        27677                       # number of WriteReq misses
system.cpu.dcache.WriteReq_misses::total        27677                       # number of WriteReq misses
system.cpu.dcache.WriteReq_miss_latency::.cpu.data   2329986500                       # number of WriteReq miss cycles
system.cpu.dcache.WriteReq_miss_latency::total   2329986500                       # number of WriteReq miss cycles
system.cpu.dcache.WriteReq_accesses::.cpu.data     14210177                       # number of WriteReq accesses(hits+misses)
system.cpu.dcache.WriteReq_accesses::total     14210177                       # number of WriteReq accesses(hits+misses)
system.cpu.dcache.WriteReq_miss_rate::.cpu.data     0.001948                       # miss rate for WriteReq accesses
system.cpu.dcache.WriteReq_miss_rate::total     0.001948                       # miss rate for WriteReq accesses
system.cpu.dcache.WriteReq_avg_miss_latency::.cpu.data 84184.936951                       # average WriteReq miss latency
system.cpu.dcache.WriteReq_avg_miss_latency::total 84184.936951                       # average WriteReq miss latency
system.cpu.dcache.WriteReq_mshr_hits::.cpu.data         8265                       # number of WriteReq MSHR hits
system.cpu.dcache.WriteReq_mshr_hits::total         8265                       # number of WriteReq MSHR hits
system.cpu.dcache.WriteReq_mshr_misses::.cpu.data        19412                       # number of WriteReq MSHR misses
system.cpu.dcache.WriteReq_mshr_misses::total        19412                       # number of WriteReq MSHR misses
system.cpu.dcache.WriteReq_mshr_miss_latency::.cpu.data   1717299500                       # number of WriteReq MSHR miss cycles
system.cpu.dcache.WriteReq_mshr_miss_latency::total   1717299500                       # number of WriteReq MSHR miss cycles
system.cpu.dcache.WriteReq_mshr_miss_rate::.cpu.data     0.001366                       # mshr miss rate for WriteReq accesses
system.cpu.dcache.WriteReq_mshr_miss_rate::total     0.001366                       # mshr miss rate for WriteReq accesses
system.cpu.dcache.WriteReq_avg_mshr_miss_latency::.cpu.data 88465.871626                       # average WriteReq mshr miss latency
system.cpu.dcache.WriteReq_avg_mshr_miss_latency::total 88465.871626                       # average WriteReq mshr miss latency
system.cpu.dcache.SoftPFReq_hits::.cpu.data         3338                       # number of SoftPFReq hits
system.cpu.dcache.SoftPFReq_hits::total          3338                       # number of SoftPFReq hits
system.cpu.dcache.SoftPFReq_misses::.cpu.data           23                       # number of SoftPFReq misses
system.cpu.dcache.SoftPFReq_misses::total           23                       # number of SoftPFReq misses
system.cpu.dcache.SoftPFReq_accesses::.cpu.data         3361                       # number of SoftPFReq accesses(hits+misses)
system.cpu.dcache.SoftPFReq_accesses::total         3361                       # number of SoftPFReq accesses(hits+misses)
system.cpu.dcache.SoftPFReq_miss_rate::.cpu.data     0.006843                       # miss rate for SoftPFReq accesses
system.cpu.dcache.SoftPFReq_miss_rate::total     0.006843                       # miss rate for SoftPFReq accesses
system.cpu.dcache.SoftPFReq_mshr_misses::.cpu.data           12                       # number of SoftPFReq MSHR misses
system.cpu.dcache.SoftPFReq_mshr_misses::total           12                       # number of SoftPFReq MSHR misses
system.cpu.dcache.SoftPFReq_mshr_miss_latency::.cpu.data       711500                       # number of SoftPFReq MSHR miss cycles
system.cpu.dcache.SoftPFReq_mshr_miss_latency::total       711500                       # number of SoftPFReq MSHR miss cycles
system.cpu.dcache.SoftPFReq_mshr_miss_rate::.cpu.data     0.003570                       # mshr miss rate for SoftPFReq accesses
system.cpu.dcache.SoftPFReq_mshr_miss_rate::total     0.003570                       # mshr miss rate for SoftPFReq accesses
system.cpu.dcache.SoftPFReq_avg_mshr_miss_latency::.cpu.data 59291.666667                       # average SoftPFReq mshr miss latency
system.cpu.dcache.SoftPFReq_avg_mshr_miss_latency::total 59291.666667                       # average SoftPFReq mshr miss latency
system.cpu.dcache.LoadLockedReq_hits::.cpu.data        89082                       # number of LoadLockedReq hits
system.cpu.dcache.LoadLockedReq_hits::total        89082                       # number of LoadLockedReq hits
system.cpu.dcache.LoadLockedReq_accesses::.cpu.data        89082                       # number of LoadLockedReq accesses(hits+misses)
system.cpu.dcache.LoadLockedReq_accesses::total        89082                       # number of LoadLockedReq accesses(hits+misses)
system.cpu.dcache.StoreCondReq_hits::.cpu.data        89082                       # number of StoreCondReq hits
system.cpu.dcache.StoreCondReq_hits::total        89082                       # number of StoreCondReq hits
system.cpu.dcache.StoreCondReq_accesses::.cpu.data        89082                       # number of StoreCondReq accesses(hits+misses)
system.cpu.dcache.StoreCondReq_accesses::total        89082                       # number of StoreCondReq accesses(hits+misses)
system.cpu.dcache.tags.pwrStateResidencyTicks::UNDEFINED  56158407500                       # Cumulative time (in ticks) in various power states
system.cpu.dcache.tags.tagsinuse          1018.404537                       # Cycle average of tags in use
system.cpu.dcache.tags.total_refs            35009721                       # Total number of references to valid blocks.
system.cpu.dcache.tags.sampled_refs             29808                       # Sample count of references to valid blocks.
system.cpu.dcache.tags.avg_refs           1174.507548                       # Average number of references to valid blocks.
system.cpu.dcache.tags.warmup_cycle            210500                       # Cycle when the warmup percentage was hit.
system.cpu.dcache.tags.occ_blocks::.cpu.data  1018.404537                       # Average occupied blocks per requestor
system.cpu.dcache.tags.occ_percent::.cpu.data     0.994536                       # Average percentage of cache occupancy
system.cpu.dcache.tags.occ_percent::total     0.994536                       # Average percentage of cache occupancy
system.cpu.dcache.tags.occ_task_id_blocks::1024         1024                       # Occupied blocks per task id
system.cpu.dcache.tags.age_task_id_blocks_1024::0            2                       # Occupied blocks per task id
system.cpu.dcache.tags.age_task_id_blocks_1024::1           17                       # Occupied blocks per task id
system.cpu.dcache.tags.age_task_id_blocks_1024::2          417                       # Occupied blocks per task id
system.cpu.dcache.tags.age_task_id_blocks_1024::3          499                       # Occupied blocks per task id
system.cpu.dcache.tags.age_task_id_blocks_1024::4           89                       # Occupied blocks per task id
system.cpu.dcache.tags.occ_task_id_percent::1024            1                       # Percentage of cache occupancy per task id
system.cpu.dcache.tags.tag_accesses         280177440                       # Number of tag accesses
system.cpu.dcache.tags.data_accesses        280177440                       # Number of data accesses
system.cpu.itb.walker.pwrStateResidencyTicks::UNDEFINED  56158407500                       # Cumulative time (in ticks) in various power states
system.cpu.itb.stage2_mmu.stage2_tlb.walker.pwrStateResidencyTicks::UNDEFINED  56158407500                       # Cumulative time (in ticks) in various power states

---------- End Simulation Statistics   ----------
